geometry optimzed in LAMMPS
_audit_creation_date              2020-11-30 
_audit_creation_method            'lammps2cif' 
_symmetry_space_group_name_H-M    'P1' 
_symmetry_Int_Tables_number       1 
_symmetry_cell_setting            triclinic 
loop_ 
_symmetry_equiv_pos_as_xyz 
  x,y,z 
_cell_length_a                    48.63579491358099 
_cell_length_b                    48.55026828676178 
_cell_length_c                    48.79738647366928 
_cell_angle_alpha                 90.01075711887405 
_cell_angle_beta                  90.14634496460346 
_cell_angle_gamma                 90.04770707489422 
loop_ 
_atom_site_label 
_atom_site_type_symbol 
_atom_site_fract_x 
_atom_site_fract_y 
_atom_site_fract_z 
_atom_site_charge 
C1          C  0.16046216  0.16510068  0.48533778     0.00370
C2          C  0.16039040  0.16573963  0.51317171     0.00370
C3          C  0.15402041  0.45997699  0.18974860     0.00370
C4          C  0.15603711  0.48800023  0.19017511     0.00370
C5          C  0.45442590  0.15730163  0.18391067     0.00370
C6          C  0.48233866  0.15588021  0.18370945     0.00370
C7          C  0.14891312  0.79065081  0.48556681     0.00370
C8          C  0.14852130  0.79097578  0.51346172     0.00370
C9          C  0.79390807  0.14664597  0.48513333     0.00370
C10         C  0.79304706  0.14703616  0.51306989     0.00370
C11         C  0.77705570  0.78310726  0.48479819     0.00370
C12         C  0.77658488  0.78279090  0.51256165     0.00370
C13         C  0.48283897  0.16111281  0.81222458     0.00370
C14         C  0.45486275  0.16131643  0.81423830     0.00370
C15         C  0.15374910  0.48870128  0.80970399     0.00370
C16         C  0.15072246  0.46087997  0.81199558     0.00370
C17         C  0.45131628  0.78048298  0.18789754     0.00370
C18         C  0.47925374  0.78034269  0.18964799     0.00370
C19         C  0.78175961  0.45767494  0.18387143     0.00370
C20         C  0.78200570  0.48561652  0.18506162     0.00370
C21         C  0.78260596  0.45691219  0.81615881     0.00370
C22         C  0.78342053  0.48478041  0.81517310     0.00370
C23         C  0.45030749  0.79925483  0.82401291     0.00370
C24         C  0.47813174  0.79724365  0.82610715     0.00370
C25         C  0.56017162  0.71993656  0.85835888     0.02940
C26         C  0.56668079  0.71010774  0.88483248    -0.13210
C27         C  0.59194562  0.69696184  0.88988474     0.00440
C28         C  0.61011976  0.69264167  0.86791764    -0.11740
C29         C  0.60496884  0.70385172  0.84199692     0.02930
C30         C  0.58013846  0.71784616  0.83751072    -0.11160
H31         H  0.55261527  0.71356738  0.90162739     0.08530
H32         H  0.62962462  0.68251285  0.87172904     0.06050
H33         H  0.57664269  0.72773991  0.81791345     0.05900
C34         C  0.71398562  0.60835060  0.90053633     0.02940
C35         C  0.72241439  0.58153135  0.89365005    -0.13210
C36         C  0.73432557  0.57631444  0.86797129     0.00440
C37         C  0.73756512  0.59815090  0.84937511    -0.11740
C38         C  0.72768319  0.62454917  0.85533290     0.02930
C39         C  0.71606182  0.62962469  0.88108467    -0.11160
H40         H  0.71888719  0.56475615  0.90785458     0.08530
H41         H  0.74624641  0.59407857  0.82932583     0.06050
H42         H  0.70777617  0.64982676  0.88569815     0.05900
C43         C  0.82772029  0.56941533  0.74990126     0.02940
C44         C  0.80595350  0.58836501  0.74777888    -0.13210
C45         C  0.81019368  0.61425074  0.73590110     0.00440
C46         C  0.83636672  0.62098157  0.72604361    -0.11740
C47         C  0.85862706  0.60283704  0.72926073     0.02930
C48         C  0.85421111  0.57693954  0.74126537    -0.11160
H49         H  0.78588074  0.58310605  0.75587627     0.08530
H50         H  0.83989140  0.64120559  0.71727306     0.06050
H51         H  0.87129583  0.56296952  0.74439846     0.05900
C52         C  0.82997782  0.73723551  0.60449036     0.02940
C53         C  0.81111257  0.74032109  0.62598547    -0.13210
C54         C  0.81802076  0.73239769  0.65275369     0.00440
C55         C  0.84439587  0.72210402  0.65803964    -0.11740
C56         C  0.86390849  0.72022257  0.63688436     0.02930
C57         C  0.85653744  0.72755443  0.61004217    -0.11160
H58         H  0.79054937  0.74775257  0.62155098     0.08530
H59         H  0.84964915  0.71513531  0.67850454     0.06050
H60         H  0.87121546  0.72528011  0.59352032     0.05900
C61         C  0.69574126  0.86392511  0.63085629     0.02940
C62         C  0.69263290  0.84285930  0.65032562    -0.13210
C63         C  0.70144276  0.81600547  0.64454861     0.00440
C64         C  0.71328029  0.81043036  0.61909417    -0.11740
C65         C  0.71547654  0.83106999  0.59899047     0.02930
C66         C  0.70642977  0.85787507  0.60490400    -0.11160
H67         H  0.68443422  0.84771537  0.67040218     0.08530
H68         H  0.72089686  0.78987132  0.61488894     0.06050
H69         H  0.70798127  0.87397900  0.58962025     0.05900
C70         C  0.56962947  0.83990942  0.76813605     0.02940
C71         C  0.58930577  0.81884764  0.76936256    -0.13210
C72         C  0.61559013  0.82282973  0.75856118     0.00440
C73         C  0.62186176  0.84794593  0.74607990    -0.11740
C74         C  0.60301739  0.86999403  0.74625137     0.02930
C75         C  0.57683468  0.86587820  0.75770169    -0.11160
H76         H  0.58386144  0.79912556  0.77828173     0.08530
H77         H  0.64191378  0.85059845  0.73678685     0.06050
H78         H  0.56220360  0.88263862  0.75870599     0.05900
O79         O  0.69575170  0.71763601  0.79791749    -0.88540
C80         C  0.70920256  0.65467611  0.74404896     0.87490
Mg81       Mg  0.66655689  0.74962719  0.78844419     1.58150
O82         O  0.76279438  0.70331850  0.74796194    -0.88270
O83         O  0.73922881  0.71141985  0.80792505    -0.75600
C84         C  0.70119901  0.79476458  0.66613129     0.92540
O85         O  0.65319866  0.68973416  0.75591318    -0.75410
O86         O  0.68114379  0.79359939  0.68268680    -0.82920
Mg87       Mg  0.68061137  0.67657406  0.79246885     1.57960
C88         C  0.79641085  0.73180592  0.67388918     0.92470
O89         O  0.70435294  0.65913484  0.82998839    -0.81180
H90         H  0.79228809  0.72279585  0.76903445    -0.06520
C91         C  0.70900349  0.71461438  0.68419753     0.87410
O92         O  0.70218013  0.77842456  0.77553077    -0.75690
O93         O  0.71411218  0.66851474  0.76475586    -0.88450
O94         O  0.79416149  0.71048698  0.68894826    -0.81260
C95         C  0.78889681  0.63586709  0.73672880     0.92580
C96         C  0.72623092  0.64496505  0.83296269     0.92430
Mg97       Mg  0.74507811  0.76036709  0.70505744     1.57950
O98         O  0.72189172  0.77888802  0.66834535    -0.81190
O99         O  0.77299687  0.74651512  0.74062424    -0.75430
O100        O  0.77426204  0.63845305  0.75823167    -0.81270
O101        O  0.64538201  0.68534989  0.82166200    -0.82980
O102        O  0.65260194  0.79838109  0.73889606    -0.81300
C103        C  0.77682235  0.72389807  0.75311793     0.86870
O104        O  0.71167450  0.76800410  0.73299511    -0.88440
O105        O  0.72907652  0.71965275  0.69892151    -0.88540
O106        O  0.68629871  0.72710403  0.68739568    -0.75600
Mg107      Mg  0.75454289  0.67541165  0.78107217     1.57970
O108        O  0.78729246  0.65269741  0.71686042    -0.82980
H109        H  0.71509015  0.73991260  0.82657150    -0.06700
O110        O  0.66279163  0.73302030  0.74788855    -0.88240
H111        H  0.63450734  0.71240310  0.72621624    -0.06520
H112        H  0.73159417  0.79786377  0.75318053    -0.06700
C113        C  0.64945250  0.71198097  0.74265129     0.86850
C114        C  0.71637659  0.72358716  0.81155632     0.87430
C115        C  0.71581818  0.78216817  0.75364008     0.87480
H116        H  0.71065222  0.69890733  0.66857816    -0.06680
O117        O  0.72180812  0.65882300  0.72163845    -0.75710
Mg118      Mg  0.67153455  0.76217051  0.71560207     1.58000
H119        H  0.69335359  0.63906822  0.74485137    -0.06700
C120        C  0.62748454  0.70444801  0.82155218     0.92470
O121        O  0.63557890  0.78280669  0.77812694    -0.82940
C122        C  0.63581560  0.80023526  0.75873491     0.92530
O123        O  0.74590095  0.64613999  0.81590470    -0.82920
Mg124      Mg  0.75735677  0.68683918  0.70754103     1.58180
O125        O  0.62955333  0.72516950  0.80567466    -0.81260
O126        O  0.77940157  0.75160955  0.67514640    -0.82950
C127        C  0.64559154  0.65165606  0.98377484     0.00370
C128        C  0.64192381  0.65117620  0.01173345     0.00370
C129        C  0.65427194  0.95640579  0.68644748     0.00370
C130        C  0.65625824  0.98429888  0.68671215     0.00370
C131        C  0.95002507  0.65795308  0.68227375     0.00370
C132        C  0.97782919  0.65706585  0.68335083     0.00370
C133        C  0.71845433  0.37263036  0.86223880     0.02940
C134        C  0.71717413  0.35351099  0.84067870    -0.13210
C135        C  0.70825955  0.32645701  0.84525148     0.00440
C136        C  0.70028555  0.31879356  0.87186620    -0.11740
C137        C  0.70214495  0.33754185  0.89377545     0.02930
C138        C  0.71107632  0.36456497  0.88882841    -0.11160
H139        H  0.72416859  0.35955515  0.82047013     0.08530
H140        H  0.69359086  0.29788060  0.87589392     0.06050
H141        H  0.71280465  0.37906151  0.90564204     0.05900
C142        C  0.57731653  0.19971913  0.86817914     0.02940
C143        C  0.59874284  0.19776390  0.84884933    -0.13210
C144        C  0.62508456  0.20774483  0.85484343     0.00440
C145        C  0.63023570  0.21819523  0.88091935    -0.11740
C146        C  0.61013056  0.21763432  0.90149522     0.02930
C147        C  0.58323433  0.20930076  0.89476345    -0.11160
H148        H  0.59427023  0.19028728  0.82837795     0.08530
H149        H  0.65008165  0.22742683  0.88517573     0.06050
H150        H  0.56695990  0.21107063  0.90974481     0.05900
C151        C  0.87121041  0.33394721  0.74917817     0.02940
C152        C  0.85206201  0.31231263  0.75034609    -0.13210
C153        C  0.82572844  0.31641342  0.76097498     0.00440
C154        C  0.81869751  0.34264188  0.77079539    -0.11740
C155        C  0.83711142  0.36493288  0.76874232     0.02930
C156        C  0.86343594  0.36047501  0.75773452    -0.11160
H157        H  0.85748290  0.29236222  0.74196402     0.08530
H158        H  0.79822135  0.34621242  0.77876280     0.06050
H159        H  0.87755511  0.37756294  0.75529921     0.05900
C160        C  0.82983393  0.22155837  0.59595944     0.02940
C161        C  0.80855455  0.22319783  0.61523725    -0.13210
C162        C  0.81341521  0.23364444  0.64161761     0.00440
C163        C  0.83988728  0.24323502  0.64826742    -0.11740
C164        C  0.86139601  0.24169088  0.62918562     0.02930
C165        C  0.85634364  0.23065052  0.60306103    -0.11160
H166        H  0.78853439  0.21479945  0.61007090     0.08530
H167        H  0.84416686  0.25101963  0.66866307     0.06050
H168        H  0.87306584  0.22855560  0.58857260     0.05900
C169        C  0.73867152  0.10113344  0.60464319     0.02940
C170        C  0.72861390  0.07450531  0.61004107    -0.13210
C171        C  0.71910706  0.06772992  0.63635834     0.00440
C172        C  0.71983436  0.08768736  0.65720516    -0.11740
C173        C  0.73051643  0.11400137  0.65251646     0.02930
C174        C  0.74066720  0.12027225  0.62632706    -0.11160
H175        H  0.72778394  0.05932340  0.59379073     0.08530
H176        H  0.71149909  0.08270646  0.67718815     0.06050
H177        H  0.74911821  0.14054552  0.62241034     0.05900
C178        C  0.59971164  0.07700025  0.73043641     0.02940
C179        C  0.57429053  0.08141612  0.74324797    -0.13210
C180        C  0.56773894  0.10771300  0.75316385     0.00440
C181        C  0.58669328  0.12932523  0.75053772    -0.11740
C182        C  0.61233644  0.12506414  0.73817491     0.02930
C183        C  0.61849532  0.09881457  0.72778023    -0.11160
H184        H  0.55983576  0.06458237  0.74555511     0.08530
H185        H  0.58157964  0.14937261  0.75889821     0.06050
H186        H  0.63840553  0.09486791  0.71864749     0.05900
O187        O  0.74626107  0.26144566  0.72918038    -0.88540
C188        C  0.76589383  0.17944665  0.73253936     0.87490
Mg189      Mg  0.73668741  0.28517476  0.76514119     1.58150
O190        O  0.69906953  0.19350216  0.70790973    -0.88270
O191        O  0.72726865  0.25008093  0.69013627    -0.75600
C192        C  0.64603334  0.21081895  0.83312741     0.92540
O193        O  0.77850643  0.22911856  0.77722870    -0.75410
O194        O  0.66622449  0.22698144  0.83723156    -0.82920
Mg195      Mg  0.78338586  0.23694619  0.73111681     1.57960
C196        C  0.63385731  0.14664820  0.73971580     0.92470
O197        O  0.79571279  0.24314284  0.68601939    -0.81180
H198        H  0.67405557  0.21099366  0.68042829    -0.06520
C199        C  0.70416564  0.17342707  0.78906576     0.87410
O200        O  0.69034907  0.28011046  0.75790381    -0.75690
O201        O  0.75936821  0.20110055  0.72099103    -0.88450
O202        O  0.65634948  0.14324185  0.72675893    -0.81260
C203        C  0.72784596  0.13567067  0.67384538     0.92580
C204        C  0.79226041  0.23074107  0.66322933     0.92430
Mg205      Mg  0.65514760  0.20473565  0.76561212     1.57950
O206        O  0.64251842  0.19850899  0.81036067    -0.81190
O207        O  0.66007149  0.21237221  0.71953465    -0.75430
O208        O  0.74033243  0.15855255  0.67065695    -0.81270
O209        O  0.80844110  0.27488068  0.74161394    -0.82980
O210        O  0.69826757  0.28248273  0.82624968    -0.81300
C211        C  0.67758731  0.20546395  0.70160912     0.86870
O212        O  0.67928559  0.24039623  0.77570435    -0.88440
O213        O  0.69212159  0.18003471  0.76776977    -0.88540
O214        O  0.71116520  0.19120880  0.80680230    -0.75600
Mg215      Mg  0.73465116  0.20376253  0.68411311     1.57970
O216        O  0.71174340  0.13149164  0.69396993    -0.82980
H217        H  0.72845754  0.28921911  0.70468600    -0.06700
O218        O  0.73940787  0.24773677  0.78896930    -0.88240
H219        H  0.76450690  0.23019278  0.81634709    -0.06520
H220        H  0.65126099  0.26554267  0.75919722    -0.06700
C221        C  0.76094366  0.23582214  0.79519913     0.86850
C222        C  0.73412016  0.26792758  0.70789091     0.87430
C223        C  0.67260890  0.26212980  0.76440816     0.87480
H224        H  0.70966265  0.15209033  0.79225744    -0.06680
O225        O  0.74806158  0.16157224  0.73912288    -0.75710
Mg226      Mg  0.70384879  0.23748903  0.81264200     1.58000
H227        H  0.78720178  0.17600551  0.73789088    -0.06700
C228        C  0.80443359  0.29473806  0.75817713     0.92470
O229        O  0.72679496  0.30989425  0.80329735    -0.82940
C230        C  0.71076321  0.30538217  0.82339158     0.92530
O231        O  0.77219055  0.21440370  0.65918311    -0.82920
Mg232      Mg  0.70169533  0.15621266  0.73198994     1.58180
O233        O  0.78180278  0.29765135  0.77093524    -0.81260
O234        O  0.63011186  0.16704943  0.75560801    -0.82950
C235        C  0.32557403  0.72477803  0.90217837     0.02940
C236        C  0.35189726  0.73441446  0.89535844    -0.13210
C237        C  0.35714790  0.74431567  0.86886997     0.00440
C238        C  0.33577963  0.74532868  0.84947412    -0.11740
C239        C  0.30942630  0.73547497  0.85596042     0.02930
C240        C  0.30475324  0.72483709  0.88219427    -0.11160
H241        H  0.36828199  0.73394079  0.91044899     0.08530
H242        H  0.34000157  0.75319469  0.82912378     0.06050
H243        H  0.28490906  0.71592351  0.88701881     0.05900
C244        C  0.23501805  0.60589452  0.89335278     0.02940
C245        C  0.22413165  0.57959052  0.88844919    -0.13210
C246        C  0.21345726  0.57317807  0.86254540     0.00440
C247        C  0.21366540  0.59290811  0.84163102    -0.11740
C248        C  0.22424894  0.61931303  0.84625113     0.02930
C249        C  0.23513657  0.62562355  0.87225218    -0.11160
H250        H  0.22368558  0.56438761  0.90470381     0.08530
H251        H  0.20480717  0.58773593  0.82186417     0.06050
H252        H  0.24305879  0.64607999  0.87643547     0.05900
C253        C  0.33531491  0.86677967  0.72966620     0.02940
C254        C  0.36193591  0.86099961  0.73919914    -0.13210
C255        C  0.36847519  0.83454849  0.74906020     0.00440
C256        C  0.34792124  0.81411066  0.74918961    -0.11740
C257        C  0.32155579  0.81926594  0.73863064     0.02930
C258        C  0.31550487  0.84574650  0.72876851    -0.11160
H259        H  0.37720071  0.87726370  0.73967439     0.08530
H260        H  0.35222061  0.79433185  0.75852589     0.06050
H261        H  0.29498899  0.85048677  0.72142968     0.05900
C262        C  0.21476439  0.87738045  0.63781390     0.02940
C263        C  0.20453490  0.87077943  0.61164309    -0.13210
C264        C  0.19396519  0.84431783  0.60641014     0.00440
C265        C  0.19273584  0.82490565  0.62783628    -0.11740
C266        C  0.20278832  0.83127242  0.65408537     0.02930
C267        C  0.21383930  0.85744645  0.65868842    -0.11160
H268        H  0.20538127  0.88583093  0.59529753     0.08530
H269        H  0.18498170  0.80439076  0.62361718     0.06050
H270        H  0.22255890  0.86220451  0.67860456     0.05900
C271        C  0.05968713  0.61244226  0.75188897     0.02940
C272        C  0.06803832  0.58593326  0.75983737    -0.13210
C273        C  0.09432881  0.58186762  0.77105795     0.00440
C274        C  0.11214310  0.60461948  0.77393896    -0.11740
C275        C  0.10461014  0.63093052  0.76454937     0.02930
C276        C  0.07806331  0.63469251  0.75406107    -0.11160
H277        H  0.05453900  0.56850906  0.75635153     0.08530
H278        H  0.13276507  0.60126170  0.78172831     0.06050
H279        H  0.07203759  0.65468771  0.74618138     0.05900
C280        C  0.06931404  0.70709585  0.63117025     0.02940
C281        C  0.07467810  0.71813625  0.60505009    -0.13210
C282        C  0.10156201  0.72607870  0.59802251     0.00440
C283        C  0.12259610  0.72439689  0.61770167    -0.11740
C284        C  0.11753282  0.71390058  0.64390351     0.02930
C285        C  0.09099632  0.70461316  0.65017919    -0.11160
H286        H  0.05809437  0.72084071  0.59044064     0.08530
H287        H  0.14288361  0.73216853  0.61271515     0.06050
H288        H  0.08676969  0.69657884  0.67046384     0.05900
O289        O  0.23296099  0.75194022  0.71018798    -0.88540
C290        C  0.22941951  0.77263314  0.79128183     0.87490
Mg291      Mg  0.19703091  0.74208534  0.68645922     1.58150
O292        O  0.25282823  0.70526210  0.77736234    -0.88270
O293        O  0.27213874  0.73308849  0.72121746    -0.75600
C294        C  0.12587557  0.65271528  0.76143140     0.92540
O295        O  0.18482987  0.78469303  0.74132552    -0.75410
O296        O  0.12181756  0.67239257  0.74460291    -0.82920
Mg297      Mg  0.23122861  0.78945870  0.73400328     1.57960
C298        C  0.22110386  0.64088605  0.82502086     0.92470
O299        O  0.27673750  0.80196607  0.72866447    -0.81180
H300        H  0.27976647  0.67961844  0.75997367    -0.06520
C301        C  0.17130326  0.71131410  0.79753290     0.87410
O302        O  0.20355944  0.69572906  0.69256408    -0.75690
O303        O  0.24100351  0.76578984  0.76986497    -0.88450
O304        O  0.23409684  0.66349179  0.82777299    -0.81260
C305        C  0.28778008  0.73341484  0.83466612     0.92580
C306        C  0.29950564  0.79826222  0.74119200     0.92430
Mg307      Mg  0.19404161  0.66154300  0.76743125     1.57950
O308        O  0.14869698  0.64984358  0.77402270    -0.81190
O309        O  0.24033394  0.66594331  0.75943840    -0.75430
O310        O  0.29108202  0.74600479  0.81202370    -0.81270
O311        O  0.22126223  0.81388820  0.69577518    -0.82980
O312        O  0.13481670  0.70414970  0.68853997    -0.81300
C313        C  0.25865710  0.68347643  0.76570159     0.86870
O314        O  0.18422405  0.68495524  0.73148657    -0.88440
O315        O  0.19260550  0.69913449  0.79110709    -0.88540
O316        O  0.15340900  0.71793683  0.77975532    -0.75600
Mg317      Mg  0.27761439  0.74049186  0.76729876     1.57970
O318        O  0.26718299  0.71785997  0.83892892    -0.82980
H319        H  0.25748615  0.73461954  0.68228523    -0.06700
O320        O  0.17237889  0.74539797  0.72327984    -0.88240
H321        H  0.14537044  0.77112072  0.74043062    -0.06520
H322        H  0.20128259  0.65666779  0.70713207    -0.06700
C323        C  0.16651823  0.76720440  0.73488831     0.86850
C324        C  0.25431488  0.74002698  0.70353829     0.87430
C325        C  0.19616307  0.67810639  0.71026079     0.87480
H326        H  0.16818117  0.71714164  0.81868294    -0.06680
O327        O  0.22234560  0.75497690  0.80907180    -0.75710
Mg328      Mg  0.14762282  0.71005364  0.73366963     1.58000
H329        H  0.22441044  0.79407615  0.79454995    -0.06700
C330        C  0.20508904  0.80979056  0.67561020     0.92470
O331        O  0.15924793  0.73195843  0.66163092    -0.82940
C332        C  0.13869493  0.71626864  0.66567297     0.92530
O333        O  0.30328430  0.77787329  0.75713388    -0.82920
Mg334      Mg  0.22886584  0.70852178  0.81457074     1.58180
O335        O  0.19211038  0.78716503  0.67261881    -0.81260
O336        O  0.20431989  0.63690016  0.80536600    -0.82950
C337        C  0.28338750  0.96033415  0.68340574     0.00370
C338        C  0.28512013  0.98827598  0.68289912     0.00370
C339        C  0.36251537  0.20030125  0.87143957     0.02940
C340        C  0.34219139  0.19891573  0.85091652    -0.13210
C341        C  0.31622562  0.21073987  0.85510494     0.00440
C342        C  0.31106993  0.22427726  0.87978828    -0.11740
C343        C  0.33034355  0.22421284  0.90142827     0.02930
C344        C  0.35616781  0.21184314  0.89707161    -0.11160
H345        H  0.34708468  0.18974332  0.83126265     0.08530
H346        H  0.29155858  0.23474799  0.88222572     0.06050
H347        H  0.37131247  0.21104676  0.91331223     0.05900
C348        C  0.21561100  0.37535346  0.85978742     0.02940
C349        C  0.22606602  0.37168349  0.88646608    -0.13210
C350        C  0.23783291  0.34630734  0.89391378     0.00440
C351        C  0.24027077  0.32519529  0.87434589    -0.11740
C352        C  0.22915746  0.32847152  0.84805476     0.02930
C353        C  0.21573636  0.35298500  0.84155067    -0.11160
H354        H  0.22523298  0.38833943  0.90121748     0.08530
H355        H  0.24980294  0.30582298  0.88002284     0.06050
H356        H  0.20577295  0.35489964  0.82174542     0.05900
C357        C  0.20422858  0.10972691  0.60404961     0.02940
C358        C  0.21492340  0.08348092  0.60990595    -0.13210
C359        C  0.22375200  0.07705048  0.63665657     0.00440
C360        C  0.22149225  0.09728169  0.65726628    -0.11740
C361        C  0.20893425  0.12258821  0.65211660     0.02930
C362        C  0.20032538  0.12867727  0.62545937    -0.11160
H363        H  0.21648551  0.06841109  0.59367995     0.08530
H364        H  0.22935774  0.09323796  0.67767391     0.06050
H365        H  0.19169594  0.14878561  0.62101225     0.05900
C366        C  0.36708625  0.11198886  0.75408373     0.02940
C367        C  0.36245342  0.08567021  0.74297882    -0.13210
C368        C  0.33652146  0.07897532  0.73217184     0.00440
C369        C  0.31609921  0.09933670  0.73003363    -0.11740
C370        C  0.32076465  0.12581158  0.74048815     0.02930
C371        C  0.34559451  0.13136120  0.75367115    -0.11160
H372        H  0.37874956  0.07051119  0.74254624     0.08530
H373        H  0.29638435  0.09428324  0.72089000     0.06050
H374        H  0.34850037  0.15140075  0.76305224     0.05900
C375        C  0.07390989  0.23750527  0.63434850     0.02940
C376        C  0.07951176  0.22508211  0.60898133    -0.13210
C377        C  0.10663939  0.21818188  0.60212664     0.00440
C378        C  0.12805841  0.22331726  0.62077887    -0.11740
C379        C  0.12280450  0.23617138  0.64590580     0.02930
C380        C  0.09578206  0.24387019  0.65219617    -0.11160
H381        H  0.06293377  0.22074052  0.59473474     0.08530
H382        H  0.14885433  0.21714528  0.61568509     0.06050
H383        H  0.09150546  0.25376045  0.67164682     0.05900
C384        C  0.09685658  0.36671143  0.77148416     0.02940
C385        C  0.11659118  0.34583630  0.77481703    -0.13210
C386        C  0.11153945  0.31906962  0.76510379     0.00440
C387        C  0.08618399  0.31318743  0.75276400    -0.11740
C388        C  0.06589328  0.33361992  0.75024399     0.02930
C389        C  0.07146401  0.36053700  0.75925761    -0.11160
H390        H  0.13647915  0.35089244  0.78358212     0.08530
H391        H  0.08244857  0.29281746  0.74440740     0.06050
H392        H  0.05634415  0.37666523  0.75632884     0.05900
O393        O  0.21882591  0.21017074  0.70170704    -0.88540
C394        C  0.15461460  0.21941200  0.75430079     0.87490
Mg395      Mg  0.25041873  0.18022606  0.71021572     1.58150
O396        O  0.20191252  0.27436200  0.75252595    -0.88270
O397        O  0.21055181  0.25326529  0.69166452    -0.75600
C398        C  0.29529622  0.21130632  0.83302821     0.92540
O399        O  0.19067003  0.16460375  0.74029794    -0.75410
O400        O  0.29391340  0.19148245  0.81610151    -0.82920
Mg401      Mg  0.17820148  0.19386271  0.70481001     1.57960
C402        C  0.22924421  0.30572834  0.82804989     0.92470
O403        O  0.16253779  0.21916127  0.66817744    -0.81180
H404        H  0.22124683  0.30476424  0.73273051    -0.06520
C405        C  0.21441608  0.21864163  0.81523798     0.87410
O406        O  0.27960674  0.21513487  0.72442962    -0.75690
O407        O  0.16877586  0.22542929  0.73420287    -0.88450
O408        O  0.20818153  0.30275534  0.81279415    -0.81260
C409        C  0.13405916  0.29868895  0.76430038     0.92580
C410        C  0.14442713  0.23799895  0.66714223     0.92430
Mg411      Mg  0.25939421  0.25614128  0.79562629     1.57950
O412        O  0.27950481  0.23218450  0.83118240    -0.81190
O413        O  0.24481613  0.28489408  0.76088239    -0.75430
O414        O  0.13698756  0.28423550  0.74270191    -0.81270
O415        O  0.18852364  0.16164477  0.67308307    -0.82980
O416        O  0.29836257  0.16486078  0.75881360    -0.81300
C417        C  0.22234928  0.28879701  0.74813411     0.86870
O418        O  0.26790615  0.22366927  0.76677172    -0.88440
O419        O  0.21890609  0.23893409  0.80069290    -0.88540
O420        O  0.22739847  0.19625052  0.81173691    -0.75600
Mg421      Mg  0.17399425  0.26643376  0.71913225     1.57970
O422        O  0.15082458  0.29718544  0.78426536    -0.82980
H423        H  0.24053412  0.23058776  0.67344677    -0.06140
O424        O  0.23321351  0.17535709  0.75023857    -0.88240
H425        H  0.21299168  0.14549037  0.77003821    -0.06520
H426        H  0.29848893  0.24393129  0.74820982    -0.06700
C427        C  0.21253253  0.16112489  0.75426853     0.86850
C428        C  0.22405685  0.23109123  0.68826769     0.87430
C429        C  0.28271699  0.22828754  0.74676243     0.87480
H430        H  0.19885182  0.21983418  0.83097336    -0.06680
O431        O  0.15802251  0.23131800  0.77724047    -0.75710
Mg432      Mg  0.26233684  0.18285081  0.78287192     1.58000
H433        H  0.13936861  0.20328893  0.75247148    -0.06700
C434        C  0.20745760  0.14373466  0.67377876     0.92470
O435        O  0.28221102  0.14766975  0.71992655    -0.82940
C436        C  0.29931187  0.14724121  0.73955789     0.92530
O437        O  0.14356291  0.25704402  0.68497723    -0.82920
Mg438      Mg  0.18540753  0.26687680  0.79269152     1.58180
O439        O  0.22586855  0.14412991  0.69228983    -0.81260
O440        O  0.24966214  0.28944161  0.82690378    -0.82950
C441        C  0.98217106  0.29114919  0.67961345     0.00370
C442        C  0.95420279  0.29212311  0.67965846     0.00370
C443        C  0.28582239  0.29379915  0.98468848     0.00370
C444        C  0.28547908  0.29381097  0.01254775     0.00370
C445        C  0.28096695  0.98830419  0.31188609     0.00370
C446        C  0.28026904  0.96033274  0.31126272     0.00370
C447        C  0.21572694  0.37471051  0.13747580     0.02940
C448        C  0.22617489  0.37036468  0.11090301    -0.13210
C449        C  0.23704068  0.34446535  0.10381980     0.00440
C450        C  0.24010605  0.32408107  0.12403361    -0.11740
C451        C  0.22989536  0.32824943  0.15043553     0.02930
C452        C  0.21672607  0.35294409  0.15649576    -0.11160
H453        H  0.22566420  0.38666039  0.09578920     0.08530
H454        H  0.24915358  0.30438675  0.11870173     0.06050
H455        H  0.20755529  0.35539825  0.17657414     0.05900
C456        C  0.33180958  0.22869422  0.09870374     0.02940
C457        C  0.35864136  0.21976800  0.10503319    -0.13210
C458        C  0.36399380  0.20656718  0.13016213     0.00440
C459        C  0.34207217  0.20171572  0.14837754    -0.11740
C460        C  0.31556985  0.21149039  0.14280600     0.02930
C461        C  0.31063691  0.22491475  0.11793778    -0.11160
H462        H  0.37524987  0.22361656  0.09080802     0.08530
H463        H  0.34613861  0.19187033  0.16791854     0.06050
H464        H  0.29025970  0.23291468  0.11365591     0.05900
C465        C  0.36909695  0.11171364  0.24811442     0.02940
C466        C  0.36133489  0.08491821  0.25553387    -0.13210
C467        C  0.33510342  0.08009757  0.26632919     0.00440
C468        C  0.31700476  0.10225188  0.27025559    -0.11740
C469        C  0.32437177  0.12898518  0.26220251     0.02930
C470        C  0.35044635  0.13356746  0.25106514    -0.11160
H471        H  0.37536579  0.06788531  0.25235502     0.08530
H472        H  0.29660433  0.09835278  0.27831109     0.06050
H473        H  0.35602584  0.15399642  0.24399600     0.05900
C474        C  0.20442784  0.10933622  0.39465640     0.02940
C475        C  0.21453877  0.08296938  0.38851476    -0.13210
C476        C  0.22296950  0.07671044  0.36167483     0.00440
C477        C  0.22076494  0.09692112  0.34114241    -0.11740
C478        C  0.20947374  0.12274249  0.34678479     0.02930
C479        C  0.20129322  0.12885779  0.37362782    -0.11160
H480        H  0.21599153  0.06758681  0.40453032     0.08530
H481        H  0.22785796  0.09247585  0.32055719     0.06050
H482        H  0.19338228  0.14916781  0.37843976     0.05900
C483        C  0.07580606  0.24485221  0.36738753     0.02940
C484        C  0.08292128  0.23450183  0.39331742    -0.13210
C485        C  0.10960414  0.22438978  0.39803512     0.00440
C486        C  0.12890821  0.22526801  0.37660702    -0.11740
C487        C  0.12263241  0.23749778  0.35150463     0.02930
C488        C  0.09588587  0.24708910  0.34686704    -0.11160
H489        H  0.06776313  0.23437858  0.40951710     0.08530
H490        H  0.14926911  0.21668738  0.37961708     0.06050
H491        H  0.09034247  0.25539072  0.32697596     0.05900
C492        C  0.09648943  0.36708587  0.22708972     0.02940
C493        C  0.11707451  0.34697189  0.22410846    -0.13210
C494        C  0.11311930  0.32021684  0.23419520     0.00440
C495        C  0.08821964  0.31371950  0.24689598    -0.11740
C496        C  0.06649043  0.33277924  0.24797928     0.02930
C497        C  0.07102805  0.35987173  0.23866636    -0.11160
H498        H  0.13670288  0.35263424  0.21523841     0.08530
H499        H  0.08570442  0.29352418  0.25602196     0.06050
H500        H  0.05497666  0.37522622  0.24040585     0.05900
O501        O  0.21953127  0.23927728  0.19827052    -0.88540
C502        C  0.28344249  0.23040886  0.25206342     0.87490
Mg503      Mg  0.18673328  0.26816976  0.20613856     1.58150
O504        O  0.23610398  0.17562227  0.24966937    -0.88270
O505        O  0.22816671  0.19620438  0.18853337    -0.75600
C506        C  0.14329355  0.23768581  0.32945133     0.92540
O507        O  0.24621114  0.28509374  0.23761437    -0.75410
O508        O  0.14350983  0.25719456  0.31214040    -0.82920
Mg509      Mg  0.26004131  0.25619586  0.20248919     1.57960
C510        C  0.20899587  0.14423208  0.32544634     0.92470
O511        O  0.27800328  0.23161533  0.16624950    -0.81180
H512        H  0.21717511  0.14495366  0.22976538    -0.06520
C513        C  0.22357287  0.23158077  0.31156145     0.87410
O514        O  0.15854405  0.23273881  0.22053299    -0.75690
O515        O  0.26939850  0.22449044  0.23176763    -0.88450
O516        O  0.22955512  0.14627675  0.30949302    -0.81260
C517        C  0.30329722  0.15074567  0.26181181     0.92580
C518        C  0.29453101  0.21134673  0.16466173     0.92430
Mg519      Mg  0.17893849  0.19343136  0.29244890     1.57950
O520        O  0.16003590  0.21762014  0.32797196    -0.81190
O521        O  0.19337195  0.16448806  0.25785946    -0.75430
O522        O  0.30138499  0.16610261  0.24073164    -0.81270
O523        O  0.24997004  0.28880470  0.17101879    -0.82980
O524        O  0.13804869  0.28388023  0.25480407    -0.81300
C525        C  0.21586162  0.16091468  0.24516134     0.86870
O526        O  0.16996005  0.22541126  0.26321136    -0.88440
O527        O  0.21917205  0.21088334  0.29750792    -0.88540
O528        O  0.21018672  0.25371358  0.30773508    -0.75600
Mg529      Mg  0.26433043  0.18339774  0.21663411     1.57970
O530        O  0.28634059  0.15226206  0.28148054    -0.82980
H531        H  0.19855069  0.21873463  0.16946438    -0.06700
O532        O  0.20340483  0.27444252  0.24636686    -0.88240
H533        H  0.22315333  0.30448997  0.26645445    -0.06520
H534        H  0.14005437  0.20406202  0.24462026    -0.06700
C535        C  0.22397940  0.28874058  0.25081147     0.86850
C536        C  0.21472548  0.21833030  0.18470026     0.87430
C537        C  0.15545618  0.22005813  0.24309520     0.87480
H538        H  0.23936956  0.23096181  0.32717819    -0.06680
O539        O  0.27996913  0.21832171  0.27489128    -0.75710
Mg540      Mg  0.17465346  0.26643471  0.27893910     1.58000
H541        H  0.29868051  0.24655592  0.25049461    -0.06700
C542        C  0.23034733  0.30599384  0.17090829     0.92470
O543        O  0.15301645  0.29952240  0.21479241    -0.82940
C544        C  0.13583265  0.29997949  0.23434478     0.92530
O545        O  0.29455993  0.19217435  0.18238789    -0.82920
Mg546      Mg  0.25242021  0.18271270  0.28993546     1.58180
O547        O  0.21042615  0.30424870  0.18764851    -0.81260
O548        O  0.18886918  0.16082435  0.32420160    -0.82950
C549        C  0.98179873  0.28693861  0.31502840     0.00370
C550        C  0.95388985  0.28529057  0.31388887     0.00370
C551        C  0.65437637  0.28482141  0.98552978     0.00370
C552        C  0.65679434  0.28285900  0.01317741     0.00370
C553        C  0.87056667  0.33357608  0.24795034     0.02940
C554        C  0.86286808  0.36025840  0.23971806    -0.13210
C555        C  0.83621981  0.36500473  0.22951147     0.00440
C556        C  0.81797081  0.34273314  0.22646258    -0.11740
C557        C  0.82526526  0.31622399  0.23526111     0.02930
C558        C  0.85169046  0.31184509  0.24562062    -0.11160
H559        H  0.87711159  0.37726876  0.24209766     0.08530
H560        H  0.79740163  0.34652910  0.21872977     0.06050
H561        H  0.85731571  0.29159177  0.25314500     0.05900
C562        C  0.82703103  0.22388041  0.40028212     0.02940
C563        C  0.85505032  0.22681115  0.39238180    -0.13210
C564        C  0.86185482  0.23831501  0.36671135     0.00440
C565        C  0.84072977  0.24401765  0.34792064    -0.11740
C566        C  0.81323808  0.24063844  0.35542309     0.02930
C567        C  0.80714978  0.23534912  0.38276044    -0.11160
H568        H  0.87167095  0.21973440  0.40526923     0.08530
H569        H  0.84580832  0.24993751  0.32711774     0.06050
H570        H  0.78630108  0.23838659  0.38938800     0.05900
C571        C  0.57628671  0.19965203  0.13095762     0.02940
C572        C  0.58094776  0.21099125  0.10494996    -0.13210
C573        C  0.60732405  0.22017014  0.09796213     0.00440
C574        C  0.62893472  0.21790181  0.11684018    -0.11740
C575        C  0.62454688  0.20699492  0.14299817     0.02930
C576        C  0.59808791  0.19759402  0.14984490    -0.11160
H577        H  0.56412372  0.21312019  0.09049734     0.08530
H578        H  0.64906527  0.22575117  0.11134396     0.06050
H579        H  0.59404974  0.18969761  0.17022170     0.05900
C580        C  0.71916272  0.37223919  0.13620749     0.02940
C581        C  0.71072459  0.36518373  0.10964348    -0.13210
C582        C  0.70088586  0.33858957  0.10425890     0.00440
C583        C  0.69929967  0.31919712  0.12560052    -0.11740
C584        C  0.70790450  0.32600460  0.15222608     0.02930
C585        C  0.71751972  0.35271983  0.15733624    -0.11160
H586        H  0.71247013  0.38003881  0.09316165     0.08530
H587        H  0.69239623  0.29844191  0.12108067     0.06050
H588        H  0.72489744  0.35814571  0.17762419     0.05900
C589        C  0.60024118  0.07659510  0.26657766     0.02940
C590        C  0.61990640  0.09773458  0.26893895    -0.13210
C591        C  0.61392008  0.12456844  0.26022315     0.00440
C592        C  0.58755680  0.13033291  0.25022536    -0.11740
C593        C  0.56699106  0.11003553  0.24947673     0.02930
C594        C  0.57355020  0.08293949  0.25734145    -0.11160
H595        H  0.64031253  0.09290101  0.27651079     0.08530
H596        H  0.58307793  0.15070636  0.24231372     0.06050
H597        H  0.55816396  0.06684586  0.25590663     0.05900
C598        C  0.74092697  0.09845718  0.39346284     0.02940
C599        C  0.74305952  0.11825127  0.37240948    -0.13210
C600        C  0.73131098  0.11350306  0.34640853     0.00440
C601        C  0.71837485  0.08802880  0.34155698    -0.11740
C602        C  0.71617719  0.06812115  0.36227335     0.02930
C603        C  0.72732819  0.07344570  0.38830983    -0.11160
H604        H  0.75317956  0.13762414  0.37662912     0.08530
H605        H  0.70895446  0.08387020  0.32182344     0.06050
H606        H  0.72541053  0.05824327  0.40445344     0.05900
O607        O  0.69398001  0.17926101  0.22993708    -0.88540
C608        C  0.67297790  0.26099209  0.23205396     0.87490
Mg609      Mg  0.70375657  0.15572068  0.26616474     1.58150
O610        O  0.73985732  0.24689774  0.20767502    -0.88270
O611        O  0.71193093  0.19006917  0.19037558    -0.75600
C612        C  0.79212211  0.23568396  0.33415964     0.92540
O613        O  0.66163127  0.21172080  0.27754732    -0.75410
O614        O  0.77302357  0.21829478  0.33895653    -0.82920
Mg615      Mg  0.65662634  0.20348802  0.23156072     1.57960
C616        C  0.80406853  0.29457525  0.23801755     0.92470
O617        O  0.64357710  0.19664232  0.18674736    -0.81180
H618        H  0.76471141  0.22774993  0.18127738    -0.06520
C619        C  0.73383780  0.26788900  0.28850520     0.87410
O620        O  0.75006614  0.16155720  0.25975837    -0.75690
O621        O  0.68008883  0.23927756  0.22105342    -0.88450
O622        O  0.78134230  0.29742741  0.22540544    -0.81260
C623        C  0.71060437  0.30444775  0.17352456     0.92580
C624        C  0.64634579  0.20938049  0.16410204     0.92430
Mg625      Mg  0.78360762  0.23735479  0.26627518     1.57950
O626        O  0.79535571  0.24657120  0.31069279    -0.81190
O627        O  0.77849363  0.22772338  0.22054255    -0.75430
O628        O  0.69837759  0.28142888  0.17027512    -0.81270
O629        O  0.63209074  0.16589070  0.24213134    -0.82980
O630        O  0.74161305  0.15887064  0.32921416    -0.81300
C631        C  0.76118785  0.23427062  0.20216112     0.86870
O632        O  0.76050718  0.20140710  0.27772217    -0.88440
O633        O  0.74617922  0.26111671  0.26747365    -0.88540
O634        O  0.72728642  0.25040009  0.30667815    -0.75600
Mg635      Mg  0.70426378  0.23635708  0.18407025     1.57970
O636        O  0.72657523  0.30886823  0.19370303    -0.82980
H637        H  0.71137556  0.15116509  0.20557997    -0.06700
O638        O  0.70038336  0.19287736  0.29035821    -0.88240
H639        H  0.67497428  0.21095991  0.31694751    -0.06520
H640        H  0.78899377  0.17644739  0.26188565    -0.06700
C641        C  0.67882150  0.20501120  0.29595085     0.86850
C642        C  0.70568177  0.17247764  0.20855782     0.87430
C643        C  0.76754170  0.17967946  0.26665909     0.87480
H644        H  0.72768590  0.28912720  0.29108819    -0.06680
O645        O  0.69040740  0.27925225  0.23862327    -0.75710
Mg646      Mg  0.73565790  0.20452176  0.31430102     1.58000
H647        H  0.65154554  0.26411935  0.23698691    -0.06700
C648        C  0.63589983  0.14556115  0.25808215     0.92470
O649        O  0.71398778  0.13166772  0.30458447    -0.82940
C650        C  0.72937606  0.13578922  0.32537752     0.92530
O651        O  0.66634503  0.22569549  0.15978755    -0.82920
Mg652      Mg  0.73663161  0.28444837  0.23147930     1.58180
O653        O  0.65855825  0.14198359  0.27081179    -0.81260
O654        O  0.80821732  0.27485993  0.25464217    -0.82950
C655        C  0.64563692  0.95554328  0.31824103     0.00370
C656        C  0.64734210  0.98357434  0.31820338     0.00370
C657        C  0.69343938  0.86063678  0.36576088     0.02940
C658        C  0.70521920  0.85527828  0.39153154    -0.13210
C659        C  0.71248850  0.82821748  0.39874346     0.00440
C660        C  0.70931329  0.80685784  0.37952256    -0.11740
C661        C  0.69699679  0.81183427  0.35407209     0.02930
C662        C  0.68781099  0.83847633  0.34800231    -0.11160
H663        H  0.70920569  0.87204671  0.40565660     0.08530
H664        H  0.71694190  0.78641471  0.38425311     0.06050
H665        H  0.67818128  0.84243510  0.32833435     0.05900
C666        C  0.57142130  0.83781636  0.23027573     0.02940
C667        C  0.57700733  0.86362601  0.24192855    -0.13210
C668        C  0.60406899  0.87074296  0.24926462     0.00440
C669        C  0.62533846  0.85143836  0.24565609    -0.11740
C670        C  0.61998496  0.82563373  0.23379002     0.02930
C671        C  0.59300669  0.81917570  0.22575111    -0.11160
H672        H  0.56036059  0.87801039  0.24547942     0.08530
H673        H  0.64591468  0.85623872  0.25282354     0.06050
H674        H  0.58849257  0.79906669  0.21715014     0.05900
C675        C  0.83037006  0.73438468  0.39500872     0.02940
C676        C  0.81124830  0.73786296  0.37368126    -0.13210
C677        C  0.81720069  0.72904509  0.34704830     0.00440
C678        C  0.84302366  0.71751835  0.34160125    -0.11740
C679        C  0.86264397  0.71481398  0.36262659     0.02930
C680        C  0.85617780  0.72291350  0.38941155    -0.11160
H681        H  0.79112511  0.74632925  0.37818495     0.08530
H682        H  0.84780140  0.71035499  0.32110986     0.06050
H683        H  0.87098213  0.71997597  0.40578879     0.05900
C684        C  0.82915538  0.56905167  0.24929907     0.02940
C685        C  0.80717067  0.58771760  0.25129111    -0.13210
C686        C  0.81129372  0.61385994  0.26263507     0.00440
C687        C  0.83752180  0.62105749  0.27217985    -0.11740
C688        C  0.85993830  0.60310093  0.26902277     0.02930
C689        C  0.85563865  0.57696033  0.25758030    -0.11160
H690        H  0.78712199  0.58216128  0.24321615     0.08530
H691        H  0.84097362  0.64153489  0.28041243     0.06050
H692        H  0.87287108  0.56324385  0.25421588     0.05900
C693        C  0.56583406  0.72284030  0.13584261     0.02940
C694        C  0.56829652  0.71217680  0.10925118    -0.13210
C695        C  0.59371417  0.70241333  0.10005492     0.00440
C696        C  0.61646744  0.70221162  0.11803539    -0.11740
C697        C  0.61389600  0.71142544  0.14519581     0.02930
C698        C  0.58869876  0.72238052  0.15357041    -0.11160
H699        H  0.55066431  0.71175041  0.09564242     0.08530
H700        H  0.63629525  0.69570252  0.11054034     0.06050
H701        H  0.58681377  0.73059523  0.17414607     0.05900
C702        C  0.71487027  0.60902616  0.09776597     0.02940
C703        C  0.72029698  0.58174783  0.10594068    -0.13210
C704        C  0.73533085  0.57670012  0.13015466     0.00440
C705        C  0.74371456  0.59917368  0.14651268    -0.11740
C706        C  0.73714468  0.62622380  0.13920894     0.02930
C707        C  0.72538407  0.63097777  0.11360329    -0.11160
H708        H  0.71148578  0.56469719  0.09460670     0.08530
H709        H  0.75340273  0.59540945  0.16619371     0.06050
H710        H  0.72119750  0.65207429  0.10761714     0.05900
O711        O  0.72845314  0.71834652  0.29697940    -0.88540
C712        C  0.72025615  0.78411509  0.24535784     0.87490
Mg713      Mg  0.75700127  0.68573912  0.28902417     1.58150
O714        O  0.66654250  0.73550569  0.24250745    -0.88270
O715        O  0.68466431  0.72512655  0.30444294    -0.75600
C716        C  0.73588032  0.64766995  0.16080249     0.92540
O717        O  0.77498367  0.74661614  0.25981485    -0.75410
O718        O  0.75382064  0.64763662  0.17973350    -0.82920
Mg719      Mg  0.74516140  0.75912332  0.29428042     1.57960
C720        C  0.63757048  0.71158713  0.16449448     0.92470
O721        O  0.71940542  0.77584846  0.33029025    -0.81180
H722        H  0.63555833  0.71456288  0.25957178    -0.06520
C723        C  0.72597241  0.72726436  0.18339464     0.87410
O724        O  0.72207109  0.65895336  0.27088489    -0.75690
O725        O  0.71396385  0.76879496  0.26455625    -0.88450
O726        O  0.63990895  0.73184892  0.18094317    -0.81260
C727        C  0.64122013  0.80385284  0.23356747     0.92580
C728        C  0.69815793  0.79109196  0.33194647     0.92430
Mg729      Mg  0.68756572  0.68081331  0.19679624     1.57950
O730        O  0.71510219  0.66380405  0.16141487    -0.81190
O731        O  0.65679720  0.69306844  0.23082438    -0.75430
O732        O  0.65568708  0.80042642  0.25507135    -0.81270
O733        O  0.77814322  0.74886024  0.32553287    -0.82980
O734        O  0.77638980  0.63839446  0.23895448    -0.81300
C735        C  0.65219284  0.71462271  0.24491826     0.86870
O736        O  0.71798087  0.67055032  0.22766571    -0.88440
O737        O  0.70418339  0.72179889  0.19520540    -0.88540
O738        O  0.74790638  0.71379272  0.18819593    -0.75600
Mg739      Mg  0.67245203  0.76218721  0.27759032     1.57970
O740        O  0.64328937  0.78792806  0.21296009    -0.82980
H741        H  0.70716362  0.69576525  0.32385554    -0.06700
O742        O  0.76555338  0.70369056  0.24984677    -0.88240
H743        H  0.79596275  0.72435560  0.23150981    -0.06520
H744        H  0.69492407  0.64101646  0.24464491    -0.06700
C745        C  0.77964491  0.72460964  0.24651321     0.86850
C746        C  0.70702330  0.71247526  0.30921332     0.87430
C747        C  0.71105675  0.65611494  0.24736561     0.87480
H748        H  0.72647294  0.74405945  0.16885553    -0.06680
O749        O  0.70915860  0.78166680  0.22188160    -0.75710
Mg750      Mg  0.75989783  0.67657787  0.21544597     1.58000
H751        H  0.73592943  0.79962093  0.24846604    -0.06700
C752        C  0.79518638  0.72903164  0.32620135     0.92470
O753        O  0.78742176  0.65185747  0.28111272    -0.82940
C754        C  0.78997435  0.63538117  0.26111921     0.92530
O755        O  0.67933875  0.79064429  0.31381900    -0.82920
Mg756      Mg  0.67487267  0.75440137  0.20360436     1.58180
O757        O  0.79278398  0.70814790  0.31060879    -0.81260
O758        O  0.65493051  0.69194432  0.16432998    -0.82950
C759        C  0.95150899  0.66077285  0.31185459     0.00370
C760        C  0.97939000  0.65968541  0.31100218     0.00370
C761        C  0.21558667  0.87746048  0.36203003     0.02940
C762        C  0.20820034  0.87013123  0.38887796    -0.13210
C763        C  0.19635178  0.84419215  0.39403950     0.00440
C764        C  0.19272382  0.82557903  0.37212680    -0.11740
C765        C  0.20148376  0.83215449  0.34553695     0.02930
C766        C  0.21231312  0.85841404  0.34065729    -0.11160
H767        H  0.21213436  0.88428277  0.40560128     0.08530
H768        H  0.18443146  0.80526244  0.37621404     0.06050
H769        H  0.21950787  0.86377676  0.32032445     0.05900
C770        C  0.33122273  0.86949777  0.26168287     0.02940
C771        C  0.35692196  0.86163899  0.25070258    -0.13210
C772        C  0.36520276  0.83363985  0.25138569     0.00440
C773        C  0.34695594  0.81463960  0.26364139    -0.11740
C774        C  0.31951604  0.82121032  0.26739462     0.02930
C775        C  0.31205292  0.84890578  0.26840779    -0.11160
H776        H  0.36939909  0.87728614  0.24126076     0.08530
H777        H  0.35279107  0.79348119  0.26738183     0.06050
H778        H  0.29109401  0.85440393  0.27354877     0.05900
C779        C  0.23257919  0.60766680  0.10556694     0.02940
C780        C  0.22115610  0.58151799  0.11029695    -0.13210
C781        C  0.21251790  0.57425996  0.13671134     0.00440
C782        C  0.21483662  0.59320909  0.15827903    -0.11740
C783        C  0.22618880  0.61936627  0.15398978     0.02930
C784        C  0.23605135  0.62596478  0.12777030    -0.11160
H785        H  0.21854249  0.56711074  0.09352412     0.08530
H786        H  0.20704009  0.58765957  0.17833800     0.06050
H787        H  0.24520960  0.64599734  0.12421255     0.05900
C788        C  0.06221716  0.61186102  0.24698195     0.02940
C789        C  0.07069858  0.58530994  0.23944683    -0.13210
C790        C  0.09715083  0.58117118  0.22877787     0.00440
C791        C  0.11503517  0.60386282  0.22613229    -0.11740
C792        C  0.10743710  0.63017010  0.23532498     0.02930
C793        C  0.08066523  0.63407498  0.24514466    -0.11160
H794        H  0.05713449  0.56792706  0.24279821     0.08530
H795        H  0.13574465  0.60047976  0.21869643     0.06050
H796        H  0.07450035  0.65412469  0.25275541     0.05900
C797        C  0.07089152  0.70581677  0.36737051     0.02940
C798        C  0.07521368  0.71801586  0.39317406    -0.13210
C799        C  0.10193516  0.72536894  0.40140210     0.00440
C800        C  0.12391536  0.72246675  0.38304323    -0.11740
C801        C  0.11977115  0.71135138  0.35689484     0.02930
C802        C  0.09355692  0.70168817  0.34991372    -0.11160
H803        H  0.05799158  0.72238771  0.40649671     0.08530
H804        H  0.14406068  0.73015125  0.38880912     0.06050
H805        H  0.09026333  0.69274308  0.32981610     0.05900
C806        C  0.32606038  0.72570668  0.09756746     0.02940
C807        C  0.35269731  0.73475716  0.10369681    -0.13210
C808        C  0.35850694  0.74625297  0.12934062     0.00440
C809        C  0.33760878  0.74821509  0.14922977    -0.11740
C810        C  0.31089822  0.73838326  0.14364690     0.02930
C811        C  0.30535599  0.72756474  0.11747770    -0.11160
H812        H  0.36896203  0.73241810  0.08872858     0.08530
H813        H  0.34263300  0.75608106  0.16942607     0.06050
H814        H  0.28518709  0.71920644  0.11287279     0.05900
O815        O  0.19511839  0.69898486  0.20943533    -0.88540
C816        C  0.19900538  0.67818486  0.29056173     0.87490
Mg817      Mg  0.23131316  0.70894381  0.18589685     1.58150
O818        O  0.17332170  0.74479016  0.27761796    -0.88270
O819        O  0.15563773  0.71710134  0.22102102    -0.75600
C820        C  0.29845944  0.79967488  0.26342957     0.92540
O821        O  0.24340592  0.66673307  0.24116299    -0.75410
O822        O  0.30349342  0.77994640  0.24686882    -0.82920
Mg823      Mg  0.19709272  0.66149394  0.23325424     1.57960
C824        C  0.20372110  0.81041751  0.32427306     0.92470
O825        O  0.15172041  0.64910027  0.22660482    -0.81180
H826        H  0.14574374  0.76914167  0.25930554    -0.06520
C827        C  0.25476593  0.74054787  0.29741223     0.87410
O828        O  0.22415901  0.75526197  0.19144364    -0.75690
O829        O  0.18703461  0.68481603  0.26922428    -0.88450
O830        O  0.19188358  0.78728962  0.32803698    -0.81260
C831        C  0.14099918  0.71442482  0.33537839     0.92580
C832        C  0.12877589  0.65179793  0.23893803     0.92430
Mg833      Mg  0.23071883  0.78971764  0.26662746     1.57950
O834        O  0.27502743  0.80292587  0.27440187    -0.81190
O835        O  0.18482101  0.78366397  0.25812995    -0.75430
O836        O  0.13755912  0.70233693  0.31237668    -0.81270
O837        O  0.20754139  0.63690987  0.19537753    -0.82980
O838        O  0.29359040  0.74792645  0.18871770    -0.81300
C839        C  0.16695462  0.76603166  0.26522074     0.86870
O840        O  0.24203395  0.76615448  0.23106980    -0.88440
O841        O  0.23337117  0.75254236  0.29082912    -0.88540
O842        O  0.27268648  0.73381855  0.27981179    -0.75600
Mg843      Mg  0.14979851  0.70895937  0.26713167     1.57970
O844        O  0.16081701  0.73101165  0.33955276    -0.82980
H845        H  0.17027835  0.71698000  0.18209911    -0.06700
O846        O  0.25568181  0.70600405  0.22293580    -0.88240
H847        H  0.28275765  0.68063988  0.24064082    -0.06520
H848        H  0.22559886  0.79434017  0.20610081    -0.06700
C849        C  0.26162120  0.68433101  0.23479617     0.86850
C850        C  0.17359310  0.71095774  0.20317964     0.87430
C851        C  0.23076858  0.77294028  0.20941809     0.87480
H852        H  0.25783428  0.73474083  0.31858985    -0.06680
O853        O  0.20569120  0.69591226  0.30848778    -0.75710
Mg854      Mg  0.27929373  0.74189627  0.23405644     1.58000
H855        H  0.20467916  0.65687966  0.29365284    -0.06700
C856        C  0.22396324  0.64088044  0.17550497     0.92470
O857        O  0.26955280  0.71967694  0.16167941    -0.82940
C858        C  0.28997123  0.73565480  0.16577073     0.92530
O859        O  0.12458415  0.67122049  0.25594928    -0.82920
Mg860      Mg  0.19798732  0.74215149  0.31456380     1.58180
O861        O  0.23686799  0.66357908  0.17254453    -0.81260
O862        O  0.21933232  0.81464423  0.30384717    -0.82950
C863        C  0.28641707  0.65472092  0.98605661     0.00370
C864        C  0.28615116  0.65432315  0.01392350     0.00370
C865        C  0.33312632  0.68521591  0.06772734    -0.09350
C866        C  0.32036711  0.71071119  0.07190636     0.06850
C867        C  0.29979812  0.71947990  0.05360257    -0.03110
C868        C  0.29070212  0.70177473  0.03291659    -0.07560
C869        C  0.30175118  0.67517773  0.03018325     0.05960
C870        C  0.32391219  0.66739774  0.04719225    -0.02590
Br871      Br  0.34133240  0.63217906  0.04477414    -0.02280
H872        H  0.34910356  0.67836988  0.08166617     0.09880
H873        H  0.27347810  0.70806127  0.02033792     0.07890
Br874      Br  0.28264938  0.75486733  0.05697604    -0.02710
C875        C  0.24574760  0.65306517  0.04426315    -0.09350
C876        C  0.26602811  0.63807491  0.03030247     0.06850
C877        C  0.27057047  0.61041438  0.03783220    -0.03110
C878        C  0.25826271  0.59994848  0.06168900    -0.07560
C879        C  0.24067332  0.61647139  0.07758083     0.05960
C880        C  0.23274622  0.64240508  0.06730223    -0.02590
Br881      Br  0.20472181  0.66460820  0.08406203    -0.02280
H882        H  0.24113619  0.67401346  0.03825800     0.09880
H883        H  0.26359391  0.57942214  0.06857842     0.07890
Br884      Br  0.29396934  0.58653063  0.01710815    -0.02710
C885        C  0.00034793  0.67334102  0.35592401    -0.09350
C886        C  0.99733934  0.67814891  0.32767086     0.06850
C887        C  0.01559966  0.69662567  0.31472845    -0.03110
C888        C  0.03732281  0.70798304  0.32942746    -0.07560
C889        C  0.04294869  0.69977119  0.35642298     0.05960
C890        C  0.02346253  0.68323662  0.37019905    -0.02590
Br891      Br  0.02908647  0.67016472  0.40687108    -0.02280
H892        H  0.98631879  0.65943996  0.36619816     0.09880
H893        H  0.05137968  0.72164844  0.31885129     0.07890
Br894      Br  0.01362524  0.70619326  0.27656793    -0.02710
C895        C  0.99437367  0.64420231  0.26451398    -0.09350
C896        C  0.99407121  0.63975439  0.29292931     0.06850
C897        C  0.01200369  0.61986971  0.30416048    -0.03110
C898        C  0.03274213  0.60851157  0.28795981    -0.07560
C899        C  0.03561814  0.61646970  0.26055001     0.05960
C900        C  0.01532267  0.63308300  0.24837383    -0.02590
Br901      Br  0.01708499  0.64316579  0.21044320    -0.02280
H902        H  0.98018884  0.65867583  0.25534342     0.09880
H903        H  0.04784857  0.59504030  0.29729805     0.07890
Br904      Br  0.00959410  0.60797930  0.34153193    -0.02710
C905        C  0.92836528  0.61554134  0.30435258    -0.09350
C906        C  0.93426614  0.64215775  0.29469217     0.06850
C907        C  0.91876577  0.65284672  0.27275711    -0.03110
C908        C  0.89593484  0.63845604  0.26310161    -0.07560
C909        C  0.88787748  0.61352071  0.27516785     0.05960
C910        C  0.90510478  0.60127273  0.29497506    -0.02590
Br911      Br  0.89592097  0.56713090  0.31245856    -0.02280
H912        H  0.94032656  0.60700961  0.32107738     0.09880
H913        H  0.88333131  0.64765623  0.24720615     0.07890
Br914      Br  0.92652703  0.68777625  0.25630305    -0.02710
C915        C  0.90823859  0.71842094  0.34083482    -0.09350
C916        C  0.88962436  0.70285952  0.35619138     0.06850
C917        C  0.89559674  0.67521704  0.36208852    -0.03110
C918        C  0.91875410  0.66293062  0.35047857    -0.07560
C919        C  0.93567986  0.67750051  0.33211714     0.05960
C920        C  0.93124979  0.70610669  0.32890691    -0.02590
Br921      Br  0.95395319  0.72958168  0.30719174    -0.02280
H922        H  0.90394330  0.73994773  0.33677938     0.09880
H923        H  0.92208011  0.64116025  0.35388523     0.07890
Br924      Br  0.87087425  0.65254719  0.38278019    -0.02710
C925        C  0.67204814  0.90713490  0.37292715    -0.09350
C926        C  0.68754450  0.88916176  0.35646223     0.06850
C927        C  0.69508938  0.89784307  0.32994485    -0.03110
C928        C  0.68316394  0.92132846  0.31878094    -0.07560
C929        C  0.66493948  0.93765138  0.33399647     0.05960
C930        C  0.66124349  0.93164827  0.36203261    -0.02590
Br931      Br  0.64024411  0.95499010  0.38574018    -0.02280
H932        H  0.66703425  0.90140856  0.39377779     0.09880
H933        H  0.68698072  0.92594874  0.29743397     0.07890
Br934      Br  0.72114728  0.87830196  0.30763034    -0.02710
C935        C  0.63768691  0.93791166  0.27094221    -0.09350
C936        C  0.62824237  0.94014130  0.29807232     0.06850
C937        C  0.60750016  0.92184871  0.30700475    -0.03110
C938        C  0.59827539  0.90073598  0.28982693    -0.07560
C939        C  0.60983027  0.89684376  0.26389220     0.05960
C940        C  0.62893503  0.91625812  0.25401106    -0.02590
Br941      Br  0.64474074  0.91307537  0.21818124    -0.02280
H942        H  0.65385203  0.95145520  0.26378192     0.09880
H943        H  0.58341236  0.88603395  0.29755640     0.07890
Br944      Br  0.59236531  0.92286861  0.34311850    -0.02710
C945        C  0.65740214  0.01767597  0.35489278    -0.09350
C946        C  0.66766811  0.99952243  0.33491916     0.06850
C947        C  0.69536887  0.00240951  0.32668362    -0.03110
C948        C  0.71164939  0.02354347  0.33768672    -0.07560
C949        C  0.70072734  0.04251573  0.35637885     0.05960
C950        C  0.67348060  0.03917258  0.36534299    -0.02590
Br951      Br  0.65610119  0.06568986  0.38874301    -0.02280
H952        H  0.63608529  0.01645350  0.36096028     0.09880
H953        H  0.73240062  0.02639163  0.33015318     0.07890
Br954      Br  0.71115464  0.98106731  0.29770666    -0.02710
C955        C  0.64275322  0.01228514  0.27654703    -0.09350
C956        C  0.63016233  0.00091148  0.29975341     0.06850
C957        C  0.60455236  0.01142677  0.30827107    -0.03110
C958        C  0.59370977  0.03496663  0.29566046    -0.07560
C959        C  0.60802966  0.04817518  0.27448575     0.05960
C960        C  0.63182435  0.03557536  0.26375937    -0.02590
Br961      Br  0.65088440  0.04999879  0.23245052    -0.02280
H962        H  0.66215562  0.00414341  0.26940693     0.09880
H963        H  0.57510802  0.04410914  0.30376193     0.07890
Br964      Br  0.58490043  0.99622119  0.33864714    -0.02710
C965        C  0.66061464  0.32677622  0.03913886    -0.09350
C966        C  0.67343796  0.30278458  0.02941675     0.06850
C967        C  0.69877637  0.29483563  0.04101030    -0.03110
C968        C  0.70853748  0.30816117  0.06442815    -0.07560
C969        C  0.69375644  0.32989012  0.07617771     0.05960
C970        C  0.67059247  0.34037956  0.06239815    -0.02590
Br971      Br  0.64993253  0.37087460  0.07641390    -0.02280
H972        H  0.64137369  0.33350019  0.03023408     0.09880
H973        H  0.72703598  0.30065046  0.07433843     0.07890
Br974      Br  0.72060317  0.26554621  0.02653186    -0.02710
C975        C  0.61809035  0.27564368  0.04551505    -0.09350
C976        C  0.63916921  0.26380839  0.02968960     0.06850
C977        C  0.64531867  0.23554837  0.03364780    -0.03110
C978        C  0.63193814  0.22074552  0.05415728    -0.07560
C979        C  0.61314557  0.23353383  0.07159489     0.05960
C980        C  0.60553371  0.26098968  0.06670256    -0.02590
Br981      Br  0.58119032  0.28050080  0.09072772    -0.02280
H982        H  0.61259200  0.29703108  0.04268947     0.09880
H983        H  0.63802082  0.19963346  0.05814403     0.07890
Br984      Br  0.67349264  0.21568757  0.01492327    -0.02710
C985        C  0.92425974  0.24439116  0.32164603    -0.09350
C986        C  0.93706856  0.26783081  0.33271048     0.06850
C987        C  0.92822484  0.27748134  0.35851469    -0.03110
C988        C  0.90512092  0.26557868  0.37111200    -0.07560
C989        C  0.89066796  0.24399624  0.35838947     0.05960
C990        C  0.90152288  0.23231846  0.33432360    -0.02590
Br991      Br  0.88469990  0.20111691  0.31682953    -0.02280
H992        H  0.93072218  0.23642050  0.30204502     0.09880
H993        H  0.89711487  0.27469324  0.38972163     0.07890
Br994      Br  0.94504187  0.30856938  0.37600777    -0.02710
C995        C  0.91287899  0.30578339  0.25076732    -0.09350
C996        C  0.89715929  0.32751834  0.26134155     0.06850
C997        C  0.90343682  0.33788312  0.28757966    -0.03110
C998        C  0.92386711  0.32520653  0.30334039    -0.07560
C999        C  0.93781554  0.30181454  0.29375277     0.05960
C1000       C  0.93260668  0.29250930  0.26683123    -0.02590
Br1001     Br  0.94850491  0.25978370  0.25176727    -0.02280
H1002       H  0.90789472  0.29739245  0.23076983     0.09880
H1003       H  0.92745069  0.33250079  0.32398160     0.07890
Br1004     Br  0.88213972  0.36639309  0.30458171    -0.02710
C1005       C  0.02762882  0.34029791  0.28096695    -0.09350
C1006       C  0.04004221  0.32405725  0.26057092     0.06850
C1007       C  0.02884304  0.29782017  0.25492326    -0.03110
C1008       C  0.00906990  0.28669710  0.27226476    -0.07560
C1009       C  0.99797815  0.30201024  0.29386777     0.05960
C1010       C  0.00630007  0.32964970  0.29719535    -0.02590
Br1011     Br  0.99020361  0.35318602  0.32427295    -0.02280
H1012       H  0.03538654  0.36077224  0.28524979     0.09880
H1013       H  0.00309826  0.26549540  0.26931011     0.07890
Br1014     Br  0.03962338  0.27600150  0.22384979    -0.02710
C1015       C  0.03180507  0.23541135  0.34366201    -0.09350
C1016       C  0.04730623  0.25269233  0.36077217     0.06850
C1017       C  0.03714251  0.27886039  0.36746307    -0.03110
C1018       C  0.01298639  0.28831169  0.35509753    -0.07560
C1019       C  0.99888027  0.27220927  0.33566318     0.05960
C1020       C  0.00771876  0.24491091  0.33111157    -0.02590
Br1021     Br  0.98981474  0.22068749  0.30571511    -0.02280
H1022       H  0.03951840  0.21512012  0.33854205     0.09880
H1023       H  0.00662162  0.30926442  0.35894000     0.07890
Br1024     Br  0.05748377  0.30364733  0.39044453    -0.02710
C1025       C  0.29746944  0.90759523  0.25710566    -0.09350
C1026       C  0.32331022  0.89867206  0.26639618     0.06850
C1027       C  0.33764493  0.91521279  0.28544926    -0.03110
C1028       C  0.32450549  0.93786308  0.29746884    -0.07560
C1029       C  0.29696592  0.94396191  0.29138845     0.05960
C1030       C  0.28423380  0.92990074  0.26945842    -0.02590
Br1031     Br  0.24818649  0.93895276  0.25645505    -0.02280
H1032       H  0.28648760  0.89564324  0.24183471     0.09880
H1033       H  0.33505214  0.94899291  0.31349368     0.07890
Br1034     Br  0.37333586  0.90551146  0.29915197    -0.02710
C1035       C  0.23388352  0.94213893  0.32424038    -0.09350
C1036       C  0.26206636  0.94420368  0.33002070     0.06850
C1037       C  0.27305064  0.92782588  0.35133955    -0.03110
C1038       C  0.25673467  0.90763813  0.36381807    -0.07560
C1039       C  0.22936746  0.90376837  0.35567421     0.05960
C1040       C  0.21755435  0.92221119  0.33684193    -0.02590
Br1041     Br  0.17962276  0.91951578  0.32628920    -0.02280
H1042       H  0.22469257  0.95476744  0.30848552     0.09880
H1043       H  0.26595151  0.89375796  0.37863272     0.07890
Br1044     Br  0.31015665  0.93162700  0.36401172    -0.02710
C1045       C  0.27036044  0.01506835  0.35418967    -0.09350
C1046       C  0.26146617  0.00485666  0.32872643     0.06850
C1047       C  0.23694022  0.01544973  0.31728842    -0.03110
C1048       C  0.22308981  0.03679384  0.33039160    -0.07560
C1049       C  0.23392752  0.04931572  0.35394121     0.05960
C1050       C  0.25737452  0.03768105  0.36644366    -0.02590
Br1051     Br  0.27509569  0.05412086  0.39760355    -0.02280
H1052       H  0.28875405  0.00691950  0.36357385     0.09880
H1053       H  0.20487891  0.04531984  0.32075356     0.07890
Br1054     Br  0.22240761  0.00445529  0.28240565    -0.02710
C1055       C  0.33726704  0.03917480  0.29655326    -0.09350
C1056       C  0.32602698  0.05201715  0.27344564     0.06850
C1057       C  0.30408241  0.03928947  0.25945567    -0.03110
C1058       C  0.29204120  0.01551636  0.27025924    -0.07560
C1059       C  0.30081175  0.00480721  0.29549245     0.05960
C1060       C  0.32481232  0.01576893  0.30771399    -0.02590
Br1061     Br  0.34063697  0.00093967  0.34053141    -0.02280
H1062       H  0.35459977  0.04848801  0.30705565     0.09880
H1063       H  0.27457351  0.00658080  0.25984326     0.07890
Br1064     Br  0.28871639  0.05468696  0.22659929    -0.02710
C1065       C  0.32545907  0.28228338  0.04234125    -0.09350
C1066       C  0.30125914  0.27336496  0.02924298     0.06850
C1067       C  0.29017989  0.24754096  0.03666742    -0.03110
C1068       C  0.30238528  0.23215806  0.05754300    -0.07560
C1069       C  0.32487831  0.24237124  0.07240757     0.05960
C1070       C  0.33698036  0.26740394  0.06413558    -0.02590
Br1071     Br  0.36659562  0.28425646  0.08407095    -0.02280
H1072       H  0.33440476  0.30191212  0.03694922     0.09880
H1073       H  0.29292403  0.21289546  0.06366105     0.07890
Br1074     Br  0.25685790  0.23294115  0.02186712    -0.02710
C1075       C  0.26778783  0.34950779  0.06335741    -0.09350
C1076       C  0.24455752  0.33746169  0.07535887     0.06850
C1077       C  0.23130983  0.31549649  0.06181691    -0.03110
C1078       C  0.24325873  0.30382089  0.03861548    -0.07560
C1079       C  0.26853368  0.31341426  0.02872685     0.05960
C1080       C  0.27977627  0.33768842  0.04004556    -0.02590
Br1081     Br  0.31214658  0.35457111  0.02549153    -0.02280
H1082       H  0.27775385  0.36685117  0.07323762     0.09880
H1083       H  0.23375422  0.28586887  0.02954213     0.07890
Br1084     Br  0.19809092  0.29919629  0.07557867    -0.02710
C1085       C  0.03501695  0.33992878  0.71024670    -0.09350
C1086       C  0.04023490  0.32701547  0.73538913     0.06850
C1087       C  0.02302380  0.30538634  0.74397216    -0.03110
C1088       C  0.00259887  0.29543643  0.72639678    -0.07560
C1089       C  0.99873686  0.30684835  0.70020461     0.05960
C1090       C  0.01452958  0.33001425  0.69265585    -0.02590
Br1091     Br  0.01035873  0.34812901  0.65812975    -0.02280
H1092       H  0.04805842  0.35671407  0.70351850     0.09880
H1093       H  0.99096820  0.27751904  0.73259414     0.07890
Br1094     Br  0.02737315  0.28810275  0.77907714    -0.02710
C1095       C  0.02990117  0.26246296  0.62589426    -0.09350
C1096       C  0.04549764  0.24471549  0.64245921     0.06850
C1097       C  0.03500759  0.23682446  0.66816331    -0.03110
C1098       C  0.01163461  0.24976666  0.67843236    -0.07560
C1099       C  0.99820471  0.27057097  0.66353767     0.05960
C1100       C  0.00618995  0.27521239  0.63613194    -0.02590
Br1101     Br  0.98679380  0.29962515  0.61215982    -0.02280
H1102       H  0.03717737  0.26789440  0.60563260     0.09880
H1103       H  0.00522606  0.24498142  0.69909653     0.07890
Br1104     Br  0.05256194  0.20956177  0.69075369    -0.02710
C1105       C  0.27626056  0.34435914  0.92691508    -0.09350
C1106       C  0.24816632  0.34113495  0.92186981     0.06850
C1107       C  0.23163010  0.32816561  0.94169700    -0.03110
C1108       C  0.24386158  0.31617178  0.96485012    -0.07560
C1109       C  0.27260074  0.31586229  0.96782032     0.05960
C1110       C  0.28853377  0.33204810  0.94972667    -0.02590
Br1111     Br  0.32729652  0.33743612  0.95422569    -0.02280
H1112       H  0.28902650  0.35486920  0.91203674     0.09880
H1113       H  0.23114615  0.30458612  0.97890792     0.07890
Br1114     Br  0.19285914  0.32341958  0.93620220    -0.02710
C1115       C  0.29448177  0.23375382  0.93597738    -0.09350
C1116       C  0.32204448  0.23697622  0.92802593     0.06850
C1117       C  0.33880755  0.25524831  0.94337941    -0.03110
C1118       C  0.32718946  0.27068328  0.96475980    -0.07560
C1119       C  0.29864986  0.27082432  0.96898291     0.05960
C1120       C  0.28231721  0.25162934  0.95456764    -0.02590
Br1121     Br  0.24291281  0.25019327  0.95629867    -0.02280
H1122       H  0.28140800  0.21903094  0.92549128     0.09880
H1123       H  0.34009232  0.28478072  0.97621084     0.07890
Br1124     Br  0.37614356  0.26381569  0.93400004    -0.02710
C1125       C  0.30304554  0.00919316  0.72585892    -0.09350
C1126       C  0.30681904  0.00409866  0.69780046     0.06850
C1127       C  0.32603528  0.02042627  0.68335160    -0.03110
C1128       C  0.33757852  0.04366166  0.69575928    -0.07560
C1129       C  0.33035888  0.05093125  0.72246529     0.05960
C1130       C  0.31409349  0.03284292  0.73807841    -0.02590
Br1131     Br  0.30418985  0.04117733  0.77519202    -0.02280
H1132       H  0.28921594  0.99638906  0.73761865     0.09880
H1133       H  0.35077453  0.05711806  0.68390172     0.07890
Br1134     Br  0.33679662  0.01299568  0.64640648    -0.02710
C1135       C  0.26822821  0.01228991  0.64093084    -0.09350
C1136       C  0.26406800  0.00535474  0.66853421     0.06850
C1137       C  0.24294351  0.01882016  0.68304470    -0.03110
C1138       C  0.22753401  0.03920984  0.67026166    -0.07560
C1139       C  0.23492835  0.04954830  0.64444130     0.05960
C1140       C  0.25518233  0.03525004  0.62928360    -0.02590
Br1141     Br  0.26954799  0.04804109  0.59495750    -0.02280
H1142       H  0.28363704  0.00149447  0.62917169     0.09880
H1143       H  0.21133079  0.04905802  0.68189493     0.07890
Br1144     Br  0.23570206  0.01368619  0.72123722    -0.02710
C1145       C  0.22016020  0.91665972  0.66937732    -0.09350
C1146       C  0.22750345  0.90438869  0.64444186     0.06850
C1147       C  0.25021796  0.91511272  0.62996527    -0.03110
C1148       C  0.26605100  0.93619582  0.64169725    -0.07560
C1149       C  0.26107460  0.94531644  0.66854482     0.05960
C1150       C  0.23721766  0.93589019  0.68203951    -0.02590
Br1151     Br  0.22783655  0.94514125  0.71891348    -0.02280
H1152       H  0.20249544  0.90898498  0.68054045     0.09880
H1153       H  0.28367928  0.94381739  0.63062395     0.07890
Br1154     Br  0.26343164  0.89927305  0.59646662    -0.02710
C1155       C  0.29717518  0.93444251  0.72521326    -0.09350
C1156       C  0.30348187  0.94260088  0.69836877     0.06850
C1157       C  0.32466101  0.92857190  0.68436519    -0.03110
C1158       C  0.33648680  0.90493829  0.69583396    -0.07560
C1159       C  0.32745629  0.89489301  0.72112808     0.05960
C1160       C  0.30857698  0.91052169  0.73645443    -0.02590
Br1161     Br  0.29643602  0.89901430  0.77204790    -0.02280
H1162       H  0.28199352  0.94560899  0.73687181     0.09880
H1163       H  0.35154636  0.89341051  0.68419949     0.07890
Br1164     Br  0.33766712  0.93983814  0.64915749    -0.02710
C1165       C  0.23067755  0.63099210  0.93744239    -0.09350
C1166       C  0.24590832  0.61333516  0.92060175     0.06850
C1167       C  0.27244895  0.60540125  0.92872041    -0.03110
C1168       C  0.28398750  0.61647243  0.95256111    -0.07560
C1169       C  0.26975363  0.63598019  0.96839020     0.05960
C1170       C  0.24233901  0.64238306  0.96114864    -0.02590
Br1171     Br  0.22055443  0.66840043  0.98104588    -0.02280
H1172       H  0.21013210  0.63708918  0.93131428     0.09880
H1173       H  0.30496080  0.61122577  0.95760974     0.07890
Br1174     Br  0.29487367  0.58218419  0.90614965    -0.02710
C1175       C  0.33634952  0.69013571  0.93828299    -0.09350
C1176       C  0.31981621  0.71198231  0.92906954     0.06850
C1177       C  0.29552475  0.71827012  0.94343791    -0.03110
C1178       C  0.28611168  0.70040400  0.96365594    -0.07560
C1179       C  0.30104433  0.67678728  0.97078139     0.05960
C1180       C  0.32729106  0.67276009  0.95931615    -0.02590
Br1181     Br  0.35098106  0.64341531  0.97071913    -0.02280
H1182       H  0.35547786  0.68546324  0.92795756     0.09880
H1183       H  0.26632568  0.70434931  0.97285435     0.07890
Br1184     Br  0.27381955  0.75037340  0.93556678    -0.02710
C1185       C  0.90337240  0.23723953  0.65817985    -0.09350
C1186       C  0.88915934  0.25118098  0.63731542     0.06850
C1187       C  0.90011336  0.27582614  0.62694048    -0.03110
C1188       C  0.92349610  0.28737378  0.63908178    -0.07560
C1189       C  0.93652544  0.27474927  0.66151290     0.05960
C1190       C  0.92703437  0.24864767  0.67010943    -0.02590
Br1191     Br  0.94442097  0.22836118  0.69904243    -0.02280
H1192       H  0.89531386  0.21799618  0.66604208     0.09880
H1193       H  0.93044003  0.30720219  0.63190522     0.07890
Br1194     Br  0.88202737  0.29613740  0.59842716    -0.02710
C1195       C  0.90525053  0.34316710  0.71227115    -0.09350
C1196       C  0.89801170  0.32856198  0.73599953     0.06850
C1197       C  0.91392783  0.30566869  0.74386961    -0.03110
C1198       C  0.93380690  0.29538084  0.72611783    -0.07560
C1199       C  0.93899002  0.30808414  0.70084705     0.05960
C1200       C  0.92588790  0.33329193  0.69487344    -0.02590
Br1201     Br  0.93471943  0.35466718  0.66313051    -0.02280
H1202       H  0.89365930  0.36125764  0.70630795     0.09880
H1203       H  0.94412073  0.27649086  0.73157209     0.07890
Br1204     Br  0.90828304  0.28682570  0.77801175    -0.02710
C1205       C  0.60090834  0.24848551  0.94164277    -0.09350
C1206       C  0.61766663  0.22880643  0.92874451     0.06850
C1207       C  0.64410387  0.22380114  0.93951869    -0.03110
C1208       C  0.65539254  0.24221632  0.95808647    -0.07560
C1209       C  0.63963755  0.26337015  0.96949917     0.05960
C1210       C  0.61147259  0.26505371  0.96274436    -0.02590
Br1211     Br  0.58675951  0.28955502  0.98099730    -0.02280
H1212       H  0.58012219  0.25201471  0.93447580     0.09880
H1213       H  0.67684833  0.24000764  0.96341876     0.07890
Br1214     Br  0.66615226  0.19262928  0.92910264    -0.02710
C1215       C  0.67141384  0.34041458  0.93427024    -0.09350
C1216       C  0.69438448  0.32855710  0.92168458     0.06850
C1217       C  0.70784203  0.30647697  0.93476054    -0.03110
C1218       C  0.69639325  0.29467958  0.95825967    -0.07560
C1219       C  0.67129350  0.30420729  0.96881011     0.05960
C1220       C  0.65986398  0.32848652  0.95769330    -0.02590
Br1221     Br  0.62809555  0.34588314  0.97281383    -0.02280
H1222       H  0.66142540  0.35801017  0.92489939     0.09880
H1223       H  0.70611704  0.27669804  0.96704125     0.07890
Br1224     Br  0.74117621  0.29094523  0.92059842    -0.02710
C1225       C  0.99365821  0.64633069  0.73072970    -0.09350
C1226       C  0.99263821  0.63884272  0.70298427     0.06850
C1227       C  0.00968003  0.61729628  0.69371895    -0.03110
C1228       C  0.03001161  0.60664135  0.71102636    -0.07560
C1229       C  0.03336586  0.61702397  0.73762006     0.05960
C1230       C  0.01400412  0.63578152  0.74799078    -0.02590
Br1231     Br  0.01599449  0.64912871  0.78494064    -0.02280
H1232       H  0.98010800  0.66207240  0.73851625     0.09880
H1233       H  0.04443781  0.59165918  0.70306800     0.07890
Br1234     Br  0.00646055  0.60201497  0.65765525    -0.02710
C1235       C  0.00209340  0.66808883  0.63958843    -0.09350
C1236       C  0.99533010  0.67571106  0.66649155     0.06850
C1237       C  0.00933300  0.69803855  0.67861295    -0.03110
C1238       C  0.03183663  0.70977644  0.66533586    -0.07560
C1239       C  0.04116821  0.69941652  0.64015564     0.05960
C1240       C  0.02518969  0.67933540  0.62653560    -0.02590
Br1241     Br  0.03584184  0.66377573  0.59203683    -0.02280
H1242       H  0.99079889  0.65170007  0.62957747     0.09880
H1243       H  0.04326476  0.72595479  0.67561016     0.07890
Br1244     Br  0.99961699  0.71275010  0.71373294    -0.02710
C1245       C  0.66919174  0.00829651  0.64310455    -0.09350
C1246       C  0.67682195  0.99876348  0.66923066     0.06850
C1247       C  0.70211490  0.00745165  0.68038650    -0.03110
C1248       C  0.71751982  0.02754237  0.66706721    -0.07560
C1249       C  0.70767237  0.04030017  0.64323167     0.05960
C1250       C  0.68398026  0.02950909  0.63035240    -0.02590
Br1251     Br  0.66853388  0.04538170  0.59778714    -0.02280
H1252       H  0.65043524  0.00092136  0.63363755     0.09880
H1253       H  0.73606254  0.03518843  0.67683876     0.07890
Br1254     Br  0.71575081  0.99504589  0.71500513    -0.02710
C1255       C  0.61815927  0.01812538  0.68370660    -0.09350
C1256       C  0.63571669  0.00253984  0.70067973     0.06850
C1257       C  0.63668639  0.00913320  0.72894012    -0.03110
C1258       C  0.62273280  0.03234551  0.73874638    -0.07560
C1259       C  0.60795238  0.04941689  0.72094499     0.05960
C1260       C  0.60500022  0.04176130  0.69339741    -0.02590
Br1261     Br  0.58554592  0.06454416  0.66776927    -0.02280
H1262       H  0.61605133  0.01306498  0.66224266     0.09880
H1263       H  0.62486084  0.03811675  0.76010817     0.07890
Br1264     Br  0.65742293  0.98903885  0.75545314    -0.02710
C1265       C  0.59935055  0.65517523  0.03901224    -0.09350
C1266       C  0.61996469  0.66895371  0.02416898     0.06850
C1267       C  0.62551550  0.69687975  0.03065061    -0.03110
C1268       C  0.61385033  0.70869171  0.05403205    -0.07560
C1269       C  0.59719627  0.69305832  0.07144506     0.05960
C1270       C  0.58843717  0.66678152  0.06293550    -0.02590
Br1271     Br  0.56561702  0.64421367  0.08573626    -0.02280
H1272       H  0.59495053  0.63376475  0.03447013     0.09880
H1273       H  0.62051754  0.72900595  0.06046208     0.07890
Br1274     Br  0.65489193  0.71717380  0.01436107    -0.02710
C1275       C  0.66129955  0.64840073  0.05946142    -0.09350
C1276       C  0.66027888  0.63654078  0.03293583     0.06850
C1277       C  0.67446888  0.61089690  0.03006740    -0.03110
C1278       C  0.69335756  0.60229649  0.05048248    -0.07560
C1279       C  0.69451767  0.61575990  0.07594512     0.05960
C1280       C  0.67521521  0.63639367  0.08099148    -0.02590
Br1281     Br  0.66365790  0.64592006  0.11745542    -0.02280
H1282       H  0.64991725  0.66646023  0.06495058     0.09880
H1283       H  0.70567619  0.58402424  0.04718642     0.07890
Br1284     Br  0.66374275  0.58240015  0.00516341    -0.02710
C1285       C  0.63909202  0.90538813  0.74262681    -0.09350
C1286       C  0.61235651  0.89716456  0.73568944     0.06850
C1287       C  0.59750901  0.91303897  0.71638047    -0.03110
C1288       C  0.61043892  0.93530917  0.70327444    -0.07560
C1289       C  0.63856362  0.94057015  0.70733375     0.05960
C1290       C  0.65267201  0.92562343  0.72782940    -0.02590
Br1291     Br  0.69115946  0.92940162  0.73563522    -0.02280
H1292       H  0.65052420  0.89414978  0.75810031     0.09880
H1293       H  0.59911103  0.94693875  0.68810978     0.07890
Br1294     Br  0.56135559  0.90323862  0.70391299    -0.02710
C1295       C  0.66231152  0.90233689  0.63188934    -0.09350
C1296       C  0.68841792  0.89229067  0.63854346     0.06850
C1297       C  0.70574611  0.90796689  0.65563089    -0.03110
C1298       C  0.69557450  0.93161474  0.66843087    -0.07560
C1299       C  0.66799745  0.93932114  0.66506645     0.05960
C1300       C  0.65216392  0.92596169  0.64473108    -0.02590
Br1301     Br  0.61656385  0.93891927  0.63389356    -0.02280
H1302       H  0.64924442  0.89095545  0.61786914     0.09880
H1303       H  0.70865656  0.94270196  0.68255129     0.07890
Br1304     Br  0.74260411  0.89652197  0.66375095    -0.02710
C1305       C  0.93093038  0.70437952  0.67241057    -0.09350
C1306       C  0.93501545  0.67713758  0.66382212     0.06850
C1307       C  0.91960108  0.66703728  0.64148675    -0.03110
C1308       C  0.89764526  0.68246367  0.63118130    -0.07560
C1309       C  0.89101267  0.70800560  0.64278698     0.05960
C1310       C  0.90880056  0.71970589  0.66237963    -0.02590
Br1311     Br  0.90263691  0.75576961  0.67720630    -0.02280
H1312       H  0.94351018  0.71298515  0.68856782     0.09880
H1313       H  0.88464261  0.67369243  0.61535749     0.07890
Br1314     Br  0.92723988  0.63214635  0.62482814    -0.02710
C1315       C  0.89518170  0.63799535  0.73302553    -0.09350
C1316       C  0.88649090  0.61275623  0.72201519     0.06850
C1317       C  0.90291032  0.59979080  0.70206064    -0.03110
C1318       C  0.92605130  0.61348714  0.69168881    -0.07560
C1319       C  0.93243694  0.64039992  0.70014354     0.05960
C1320       C  0.91775465  0.65192533  0.72223539    -0.02590
Br1321     Br  0.92648375  0.68703214  0.73803288    -0.02280
H1322       H  0.88326044  0.64775297  0.74905479     0.09880
H1323       H  0.93776568  0.60396113  0.67542540     0.07890
Br1324     Br  0.89276294  0.56532592  0.68571044    -0.02710
C1325       C  0.67155956  0.60535286  0.92768806    -0.09350
C1326       C  0.69899445  0.61364549  0.92621781     0.06850
C1327       C  0.71027493  0.62964865  0.94755637    -0.03110
C1328       C  0.69335319  0.63902391  0.96888555    -0.07560
C1329       C  0.66496744  0.63366472  0.96837204     0.05960
C1330       C  0.65452402  0.61522645  0.94837260    -0.02590
Br1331     Br  0.61730183  0.60203110  0.94858948    -0.02280
H1332       H  0.66293235  0.59238132  0.91175105     0.09880
H1333       H  0.70181503  0.65267837  0.98431796     0.07890
Br1334     Br  0.74806648  0.64081615  0.94705706    -0.02710
C1335       C  0.62857133  0.69964942  0.92492808    -0.09350
C1336       C  0.60196412  0.69082471  0.91814037     0.06850
C1337       C  0.58757371  0.67434455  0.93715305    -0.03110
C1338       C  0.60100198  0.66496369  0.96096830    -0.07560
C1339       C  0.62914594  0.67030021  0.96532739     0.05960
C1340       C  0.64244379  0.68915278  0.94759531    -0.02590
Br1341     Br  0.68013666  0.70046687  0.95123841    -0.02280
H1342       H  0.63952298  0.71335944  0.91122611     0.09880
H1343       H  0.59029169  0.65087637  0.97445198     0.07890
Br1344     Br  0.55126288  0.66073619  0.92997325    -0.02710
C1345       C  0.50215179  0.80453986  0.78166365    -0.09350
C1346       C  0.49656416  0.81394918  0.80829893     0.06850
C1347       C  0.51242733  0.83579631  0.81908795    -0.03110
C1348       C  0.53491445  0.84590331  0.80445124    -0.07560
C1349       C  0.54205782  0.83443277  0.77919983     0.05960
C1350       C  0.52481831  0.81448395  0.76718018    -0.02590
Br1351     Br  0.53252412  0.79902664  0.73182452    -0.02280
H1352       H  0.48997560  0.78812467  0.77279650     0.09880
H1353       H  0.54799652  0.86145457  0.81367829     0.07890
Br1354     Br  0.50571292  0.85185325  0.85419293    -0.02710
C1355       C  0.49844735  0.75066447  0.82139600    -0.09350
C1356       C  0.49171368  0.77268263  0.83880645     0.06850
C1357       C  0.50340525  0.77317853  0.86524317    -0.03110
C1358       C  0.52486346  0.75508655  0.87186329    -0.07560
C1359       C  0.53408861  0.73526931  0.85296999     0.05960
C1360       C  0.51904984  0.73182164  0.82837768    -0.02590
Br1361     Br  0.52543785  0.70179970  0.80352701    -0.02280
H1362       H  0.48855743  0.74888511  0.80157247     0.09880
H1363       H  0.53500998  0.75735049  0.89151047     0.07890
Br1364     Br  0.49027059  0.79680878  0.89360004    -0.02710
C1365       C  0.42396232  0.75568530  0.83089552    -0.09350
C1366       C  0.43151978  0.78182632  0.84077048     0.06850
C1367       C  0.41675211  0.79310816  0.86296387    -0.03110
C1368       C  0.39364236  0.77949748  0.87318781    -0.07560
C1369       C  0.38460505  0.75483085  0.86144224     0.05960
C1370       C  0.40053355  0.74229800  0.84086460    -0.02590
Br1371     Br  0.39041401  0.70754347  0.82505135    -0.02280
H1372       H  0.43529089  0.74640065  0.81422819     0.09880
H1373       H  0.38168287  0.78907090  0.88929955     0.07890
Br1374     Br  0.42582483  0.82769792  0.87937797    -0.02710
C1375       C  0.42944101  0.79556331  0.77772275    -0.09350
C1376       C  0.43688071  0.81260303  0.79980209     0.06850
C1377       C  0.42659777  0.83972030  0.80036127    -0.03110
C1378       C  0.40551196  0.84741305  0.78232218    -0.07560
C1379       C  0.39529225  0.82882398  0.76269304     0.05960
C1380       C  0.40917997  0.80357772  0.75901079    -0.02590
Br1381     Br  0.40112147  0.77905828  0.72912756    -0.02280
H1382       H  0.43841911  0.77526266  0.77580820     0.09880
H1383       H  0.39615527  0.86750787  0.78468583     0.07890
Br1384     Br  0.44075734  0.86737432  0.82437629    -0.02710
C1385       C  0.77195974  0.50838222  0.85922931    -0.09350
C1386       C  0.76471924  0.50217808  0.83204818     0.06850
C1387       C  0.74284188  0.51669351  0.81977984    -0.03110
C1388       C  0.73138427  0.53928107  0.83319269    -0.07560
C1389       C  0.74152119  0.54809572  0.85870313     0.05960
C1390       C  0.76090884  0.53148789  0.87248117    -0.02590
Br1391     Br  0.77572445  0.54125199  0.90760819    -0.02280
H1392       H  0.78794466  0.49664809  0.86934503     0.09880
H1393       H  0.71562954  0.55115908  0.82282003     0.07890
Br1394     Br  0.72834636  0.50751251  0.78435419    -0.02710
C1395       C  0.79448901  0.50191879  0.76838416    -0.09350
C1396       C  0.80187490  0.49995508  0.79611855     0.06850
C1397       C  0.82292494  0.51719363  0.80626359    -0.03110
C1398       C  0.83308153  0.53858297  0.78998725    -0.07560
C1399       C  0.82269551  0.54282328  0.76353464     0.05960
C1400       C  0.80449059  0.52339297  0.75215788    -0.02590
Br1401     Br  0.79135068  0.52658489  0.71520032    -0.02280
H1402       H  0.77915608  0.48821894  0.75990980     0.09880
H1403       H  0.84778597  0.55297286  0.79861837     0.07890
Br1404     Br  0.83811437  0.51280778  0.84225724    -0.02710
C1405       C  0.82690054  0.43276150  0.80650163    -0.09350
C1406       C  0.80001498  0.43924962  0.79818771     0.06850
C1407       C  0.78829986  0.42448858  0.77617431    -0.03110
C1408       C  0.80197590  0.40171557  0.76536239    -0.07560
C1409       C  0.82720764  0.39287999  0.77626136     0.05960
C1410       C  0.84036847  0.40943931  0.79613186    -0.02590
Br1411     Br  0.87481520  0.39936033  0.81247634    -0.02280
H1412       H  0.83659730  0.44455076  0.82268679     0.09880
H1413       H  0.79206445  0.38983548  0.74932536     0.07890
Br1414     Br  0.75327399  0.43356954  0.76050905    -0.02710
C1415       C  0.73580989  0.43891567  0.82643938    -0.09350
C1416       C  0.76331618  0.44201166  0.83455858     0.06850
C1417       C  0.77312902  0.42655544  0.85698413    -0.03110
C1418       C  0.75693531  0.40548297  0.86792936    -0.07560
C1419       C  0.73092379  0.39977335  0.85689259     0.05960
C1420       C  0.71969368  0.41770146  0.83717767    -0.02590
Br1421     Br  0.68325038  0.41263014  0.82291516    -0.02280
H1422       H  0.72749062  0.45154005  0.81018145     0.09880
H1423       H  0.76548371  0.39225422  0.88367137     0.07890
Br1424     Br  0.80859932  0.43287000  0.87296232    -0.02710
C1425       C  0.79962748  0.49988186  0.23096577    -0.09350
C1426       C  0.80216922  0.50092775  0.20230935     0.06850
C1427       C  0.81950635  0.52106624  0.19055314    -0.03110
C1428       C  0.83058655  0.54182842  0.20692400    -0.07560
C1429       C  0.82464114  0.54290791  0.23488715     0.05960
C1430       C  0.81031542  0.52107176  0.24725083    -0.02590
Br1431     Br  0.80250369  0.52105245  0.28573526    -0.02280
H1432       H  0.78665056  0.48444241  0.24038560     0.09880
H1433       H  0.84213200  0.55836676  0.19743651     0.07890
Br1434     Br  0.82769519  0.52247826  0.15216412    -0.02710
C1435       C  0.76444490  0.50488652  0.14073509    -0.09350
C1436       C  0.76198989  0.50293618  0.16938146     0.06850
C1437       C  0.74468324  0.52181705  0.18304799    -0.03110
C1438       C  0.73319575  0.54375654  0.16869473    -0.07560
C1439       C  0.73968447  0.54844741  0.14110361     0.05960
C1440       C  0.75404425  0.52785290  0.12660468    -0.02590
Br1441     Br  0.76367907  0.53191416  0.08875429    -0.02280
H1442       H  0.77731784  0.49035355  0.12985527     0.09880
H1443       H  0.72111298  0.55876497  0.17985830     0.07890
Br1444     Br  0.73747359  0.52077135  0.22168784    -0.02710
C1445       C  0.77217276  0.42825497  0.14358128    -0.09350
C1446       C  0.76192322  0.44221242  0.16656312     0.06850
C1447       C  0.73519230  0.43609471  0.17586656    -0.03110
C1448       C  0.72021018  0.41495038  0.16350840    -0.07560
C1449       C  0.73167777  0.39916729  0.14240274     0.05960
C1450       C  0.75750310  0.40657797  0.13169728    -0.02590
Br1451     Br  0.77564516  0.38524846  0.10399539    -0.02280
H1452       H  0.79265798  0.43265952  0.13623717     0.09880
H1453       H  0.70041152  0.40924349  0.17194488     0.07890
Br1454     Br  0.71930845  0.45298228  0.20748837    -0.02710
C1455       C  0.78950498  0.42678897  0.22352805    -0.09350
C1456       C  0.80051152  0.44004161  0.20050980     0.06850
C1457       C  0.82633835  0.43146394  0.19056941    -0.03110
C1458       C  0.83905796  0.40805145  0.20168469    -0.07560
C1459       C  0.82640038  0.39309859  0.22277624     0.05960
C1460       C  0.80225927  0.40365720  0.23480075    -0.02590
Br1461     Br  0.78515350  0.38654917  0.26590577    -0.02280
H1462       H  0.77004512  0.43346902  0.23186208     0.09880
H1463       H  0.85791192  0.40048330  0.19262224     0.07890
Br1464     Br  0.84405268  0.44960312  0.16059348    -0.02710
C1465       C  0.50286917  0.76805968  0.14592116    -0.09350
C1466       C  0.49624318  0.76126625  0.17306973     0.06850
C1467       C  0.51023937  0.73938455  0.18596342    -0.03110
C1468       C  0.53093704  0.72548579  0.17216858    -0.07560
C1469       C  0.53954854  0.73401639  0.14616584     0.05960
C1470       C  0.52485579  0.75514021  0.13262657    -0.02590
Br1471     Br  0.53606731  0.77003403  0.09798460    -0.02280
H1472       H  0.49241200  0.78498703  0.13588770     0.09880
H1473       H  0.54159976  0.70889540  0.18257908     0.07890
Br1474     Br  0.50254855  0.72741170  0.22256188    -0.02710
C1475       C  0.51023799  0.82040783  0.18642726    -0.09350
C1476       C  0.49567656  0.80230943  0.20362578     0.06850
C1477       C  0.50264688  0.80156076  0.23172388    -0.03110
C1478       C  0.52664995  0.81492085  0.24083011    -0.07560
C1479       C  0.54316976  0.82980798  0.22244595     0.05960
C1480       C  0.53393062  0.83382265  0.19551276    -0.02590
Br1481     Br  0.55463040  0.85513661  0.16967854    -0.02280
H1482       H  0.50451146  0.82234306  0.16506816     0.09880
H1483       H  0.53309378  0.81266225  0.26197685     0.07890
Br1484     Br  0.48038753  0.78307675  0.25838855    -0.02710
C1485       C  0.43521925  0.82284622  0.21460514    -0.09350
C1486       C  0.43323361  0.79454190  0.20837660     0.06850
C1487       C  0.41007666  0.78019409  0.21777302    -0.03110
C1488       C  0.38787891  0.79437428  0.22792003    -0.07560
C1489       C  0.38977998  0.82206256  0.23637952     0.05960
C1490       C  0.41472777  0.83615298  0.23026031    -0.02590
Br1491     Br  0.42368129  0.87230114  0.24335643    -0.02280
H1492       H  0.45263065  0.83470969  0.20754341     0.09880
H1493       H  0.36914106  0.78258930  0.22964127     0.07890
Br1494     Br  0.40735634  0.74085458  0.21964283    -0.02710
C1495       C  0.41951783  0.78943111  0.14971849    -0.09350
C1496       C  0.43585953  0.76973546  0.16333721     0.06850
C1497       C  0.42994065  0.74145341  0.15868397    -0.03110
C1498       C  0.40535956  0.73407500  0.14550441    -0.07560
C1499       C  0.38693171  0.75422882  0.13637716     0.05960
C1500       C  0.39501316  0.78192215  0.13672500    -0.02590
Br1501     Br  0.37194698  0.81025080  0.12190499    -0.02280
H1502       H  0.42408654  0.81116526  0.15209868     0.09880
H1503       H  0.39959720  0.71254136  0.14426710     0.07890
Br1504     Br  0.45120330  0.71146435  0.17286672    -0.02710
C1505       C  0.13044078  0.54691281  0.76419641    -0.09350
C1506       C  0.10534605  0.55379136  0.77634972     0.06850
C1507       C  0.09342436  0.53510083  0.79503346    -0.03110
C1508       C  0.10801272  0.51137179  0.80299461    -0.07560
C1509       C  0.13474082  0.50634914  0.79315960     0.05960
C1510       C  0.14532860  0.52397924  0.77269184    -0.02590
Br1511     Br  0.18107039  0.52010539  0.75692636    -0.02280
H1512       H  0.13950202  0.56065395  0.74920865     0.09880
H1513       H  0.09966678  0.49838335  0.81900364     0.07890
Br1514     Br  0.05922953  0.54272878  0.81292949    -0.02710
C1515       C  0.15862850  0.52110540  0.84847812    -0.09350
C1516       C  0.17188881  0.50445107  0.82894620     0.06850
C1517       C  0.20072145  0.50720827  0.82569638    -0.03110
C1518       C  0.21470352  0.52811424  0.83963754    -0.07560
C1519       C  0.20064206  0.54646187  0.85663819     0.05960
C1520       C  0.17264055  0.54220572  0.86198301    -0.02590
Br1521     Br  0.15193865  0.56699758  0.88454796    -0.02280
H1522       H  0.13670956  0.51907586  0.85174126     0.09880
H1523       H  0.23631206  0.53154808  0.83541872     0.07890
Br1524     Br  0.22255615  0.48605032  0.80082409    -0.02710
C1525       C  0.19113182  0.43050832  0.81170702    -0.09350
C1526       C  0.17097469  0.44379092  0.82717970     0.06850
C1527       C  0.16822726  0.43716491  0.85517882    -0.03110
C1528       C  0.18406240  0.41574762  0.86641010    -0.07560
C1529       C  0.20352691  0.40174845  0.85030035     0.05960
C1530       C  0.20850458  0.41113579  0.82339490    -0.02590
Br1531     Br  0.23893604  0.39873093  0.80149907    -0.02280
H1532       H  0.19357170  0.43538400  0.79022816     0.09880
H1533       H  0.18023159  0.40922980  0.88727736     0.07890
Br1534     Br  0.14221863  0.45547853  0.87831168    -0.02710
C1535       C  0.11018931  0.43021955  0.81415308    -0.09350
C1536       C  0.12920154  0.44435081  0.79760538     0.06850
C1537       C  0.13305135  0.43519536  0.77041800    -0.03110
C1538       C  0.12041983  0.41086367  0.76143955    -0.07560
C1539       C  0.10401958  0.39525354  0.77918440     0.05960
C1540       C  0.09800573  0.40562469  0.80533858    -0.02590
Br1541     Br  0.07615476  0.38506956  0.83082578    -0.02280
H1542       H  0.10683582  0.43680888  0.83503310     0.09880
H1543       H  0.12499087  0.40305260  0.74115003     0.07890
Br1544     Br  0.15783319  0.45284443  0.74564876    -0.02710
C1545       C  0.50641681  0.16792037  0.85734700    -0.09350
C1546       C  0.50080714  0.17756865  0.83074175     0.06850
C1547       C  0.51788080  0.19811135  0.81950114    -0.03110
C1548       C  0.54092545  0.20708515  0.83379531    -0.07560
C1549       C  0.54872553  0.19478133  0.85859832     0.05960
C1550       C  0.53053219  0.17595311  0.87114351    -0.02590
Br1551     Br  0.53925991  0.15769297  0.90488650    -0.02280
H1552       H  0.49365769  0.15188201  0.86608922     0.09880
H1553       H  0.55418299  0.22227447  0.82429552     0.07890
Br1554     Br  0.51263527  0.21311558  0.78354030    -0.02710
C1555       C  0.51592354  0.12237172  0.80830461    -0.09350
C1556       C  0.49833017  0.14093100  0.79455270     0.06850
C1557       C  0.50079500  0.14299639  0.76563002    -0.03110
C1558       C  0.52197844  0.12915093  0.75209376    -0.07560
C1559       C  0.54129888  0.11362154  0.76656454     0.05960
C1560       C  0.53767585  0.10941137  0.79476407    -0.02590
Br1561     Br  0.56403063  0.08934232  0.81619630    -0.02280
H1562       H  0.51428726  0.11974306  0.83025578     0.09880
H1563       H  0.52484355  0.13243990  0.73030543     0.07890
Br1564     Br  0.47911117  0.16617244  0.74260272    -0.02710
C1565       C  0.43211476  0.11825897  0.79758633    -0.09350
C1566       C  0.43748062  0.14647723  0.79403285     0.06850
C1567       C  0.42193836  0.16141500  0.77476656    -0.03110
C1568       C  0.40227559  0.14807475  0.75906662    -0.07560
C1569       C  0.39415461  0.12100209  0.76507949     0.05960
C1570       C  0.40974288  0.10572236  0.78430032    -0.02590
Br1571     Br  0.39933278  0.06968633  0.79669001    -0.02280
H1572       H  0.44350871  0.10675482  0.81286955     0.09880
H1573       H  0.39122135  0.15999943  0.74383994     0.07890
Br1574     Br  0.42462302  0.20056632  0.77002284    -0.02710
C1575       C  0.42213349  0.15458678  0.85246589    -0.09350
C1576       C  0.43892268  0.17318159  0.83786118     0.06850
C1577       C  0.43347090  0.20168181  0.84080662    -0.03110
C1578       C  0.40941777  0.21035974  0.85409378    -0.07560
C1579       C  0.39076101  0.19121336  0.86487173     0.05960
C1580       C  0.39795926  0.16327673  0.86529370    -0.02590
Br1581     Br  0.37390029  0.13606648  0.88060637    -0.02280
H1582       H  0.42630467  0.13271530  0.85158683     0.09880
H1583       H  0.40431929  0.23208520  0.85438081     0.07890
Br1584     Br  0.45636751  0.23002261  0.82601003    -0.02710
C1585       C  0.78796225  0.74098399  0.53955550    -0.09350
C1586       C  0.79645072  0.76656087  0.52925080     0.06850
C1587       C  0.82013779  0.77906329  0.54053981    -0.03110
C1588       C  0.83244993  0.76785603  0.56394575    -0.07560
C1589       C  0.82142105  0.74434701  0.57635975     0.05960
C1590       C  0.79995552  0.73002234  0.56319367    -0.02590
Br1591     Br  0.78518208  0.69641701  0.57774707    -0.02280
H1592       H  0.77074395  0.73036389  0.53038910     0.09880
H1593       H  0.84945040  0.77861739  0.57357811     0.07890
Br1594     Br  0.83562793  0.81230050  0.52613103    -0.02710
C1595       C  0.76442721  0.82476349  0.53900613    -0.09350
C1596       C  0.75629580  0.79906135  0.52857140     0.06850
C1597       C  0.73175518  0.78704550  0.53835485    -0.03110
C1598       C  0.71717218  0.79980407  0.55930140    -0.07560
C1599       C  0.72724501  0.82360058  0.57208824     0.05960
C1600       C  0.75064988  0.83673165  0.56115497    -0.02590
Br1601     Br  0.76727663  0.86841293  0.57793460    -0.02280
H1602       H  0.78285694  0.83453541  0.53144267     0.09880
H1603       H  0.69896173  0.78975039  0.56728544     0.07890
Br1604     Br  0.71803762  0.75193016  0.52676264    -0.02710
C1605       C  0.73101350  0.79058283  0.46355141    -0.09350
C1606       C  0.75772284  0.80033300  0.46834550     0.06850
C1607       C  0.76695934  0.82349659  0.45348096    -0.03110
C1608       C  0.75102448  0.83394171  0.43191835    -0.07560
C1609       C  0.72563107  0.82194201  0.42531590     0.05960
C1610       C  0.71490286  0.80129489  0.44244031    -0.02590
Br1611     Br  0.67876942  0.78626340  0.43707675    -0.02280
H1612       H  0.72310776  0.77343099  0.47501591     0.09880
H1613       H  0.75915533  0.85043810  0.41936764     0.07890
Br1614     Br  0.80109565  0.84152344  0.46141035    -0.02710
C1615       C  0.79819310  0.72946292  0.43365148    -0.09350
C1616       C  0.82201421  0.74169401  0.42310674     0.06850
C1617       C  0.83455912  0.76334064  0.43768509    -0.03110
C1618       C  0.82128240  0.77451519  0.46052357    -0.07560
C1619       C  0.79541611  0.76473815  0.46872785     0.05960
C1620       C  0.78492071  0.74068901  0.45631971    -0.02590
Br1621     Br  0.75182153  0.72301487  0.46812610    -0.02280
H1622       H  0.78887989  0.71216668  0.42306606     0.09880
H1623       H  0.83020438  0.79230214  0.47038692     0.07890
Br1624     Br  0.86765705  0.78075141  0.42524656    -0.02710
C1625       C  0.75159438  0.14504514  0.54194327    -0.09350
C1626       C  0.77294492  0.13043870  0.52921962     0.06850
C1627       C  0.77797923  0.10310427  0.53752831    -0.03110
C1628       C  0.76551669  0.09298691  0.56145751    -0.07560
C1629       C  0.74713613  0.10943274  0.57653579     0.05960
C1630       C  0.73849024  0.13471554  0.56515195    -0.02590
Br1631     Br  0.70923957  0.15635727  0.58052091    -0.02280
H1632       H  0.74630945  0.16550922  0.53484310     0.09880
H1633       H  0.77126608  0.07280430  0.56898701     0.07890
Br1634     Br  0.80178772  0.07909655  0.51741775    -0.02710
C1635       C  0.79666142  0.19546404  0.53061227    -0.09350
C1636       C  0.80736947  0.16859085  0.52963983     0.06850
C1637       C  0.82829470  0.16118213  0.54837095    -0.03110
C1638       C  0.83712478  0.17986087  0.56823668    -0.07560
C1639       C  0.82494628  0.20581965  0.57051860     0.05960
C1640       C  0.80512266  0.21395887  0.55104130    -0.02590
Br1641     Br  0.78818846  0.24957163  0.55254192    -0.02280
H1642       H  0.78040906  0.20143857  0.51660907     0.09880
H1643       H  0.85230712  0.17337450  0.58319870     0.07890
Br1644     Br  0.84526994  0.12561880  0.54862162    -0.02710
C1645       C  0.78333291  0.18195274  0.45082267    -0.09350
C1646       C  0.80302122  0.17122050  0.46872975     0.06850
C1647       C  0.83033850  0.18079813  0.46625661    -0.03110
C1648       C  0.83700868  0.20003205  0.44571693    -0.07560
C1649       C  0.81796644  0.20727078  0.42493222     0.05960
C1650       C  0.79080013  0.19635587  0.42750263    -0.02590
Br1651     Br  0.76361170  0.19214739  0.39890384    -0.02280
H1652       H  0.76211130  0.17558365  0.45266942     0.09880
H1653       H  0.85783162  0.20770410  0.44530066     0.07890
Br1654     Br  0.86015780  0.16677631  0.48775596    -0.02710
C1655       C  0.78149842  0.10105135  0.42429684    -0.09350
C1656       C  0.75312475  0.10424138  0.42076642     0.06850
C1657       C  0.73749653  0.11540562  0.44237359    -0.03110
C1658       C  0.75071282  0.12533455  0.46607062    -0.07560
C1659       C  0.77961251  0.12505917  0.46819256     0.05960
C1660       C  0.79470494  0.11118760  0.44773010    -0.02590
Br1661     Br  0.83389520  0.10781399  0.44966222    -0.02280
H1662       H  0.79366656  0.09202002  0.40803915     0.09880
H1663       H  0.73869237  0.13631708  0.48118110     0.07890
Br1664     Br  0.69856343  0.12056868  0.43888426    -0.02710
C1665       C  0.15509939  0.83474944  0.53932985    -0.09350
C1666       C  0.16617434  0.80957994  0.53038537     0.06850
C1667       C  0.18987502  0.79941836  0.54370601    -0.03110
C1668       C  0.19971741  0.81233796  0.56733867    -0.07560
C1669       C  0.18641013  0.83543506  0.57827957     0.05960
C1670       C  0.16473241  0.84751536  0.56332306    -0.02590
Br1671     Br  0.14528659  0.87915248  0.57655742    -0.02280
H1672       H  0.13745528  0.84338937  0.52891867     0.09880
H1673       H  0.21705498  0.80339618  0.57812637     0.07890
Br1674     Br  0.20911157  0.76724539  0.53179209    -0.02710
C1675       C  0.14195644  0.74515656  0.53533851    -0.09350
C1676       C  0.13122632  0.77128744  0.52941169     0.06850
C1677       C  0.10670569  0.77955667  0.54244903    -0.03110
C1678       C  0.09550980  0.76330111  0.56339086    -0.07560
C1679       C  0.10817869  0.73855235  0.57118528     0.05960
C1680       C  0.13048783  0.72869008  0.55571245    -0.02590
Br1681     Br  0.14702942  0.69346341  0.56265828    -0.02280
H1682       H  0.16027880  0.73796239  0.52520777     0.09880
H1683       H  0.07795658  0.77086959  0.57474693     0.07890
Br1684     Br  0.08808582  0.81300985  0.53313482    -0.02710
C1685       C  0.13750611  0.74394817  0.46717804    -0.09350
C1686       C  0.13057637  0.77190906  0.46946868     0.06850
C1687       C  0.10924212  0.78235720  0.45274012    -0.03110
C1688       C  0.09790622  0.76590407  0.43203048    -0.07560
C1689       C  0.10736886  0.73899691  0.42786434     0.05960
C1690       C  0.12617911  0.72754819  0.44656590    -0.02590
Br1691     Br  0.13861770  0.69019108  0.44335103    -0.02280
H1692       H  0.15341747  0.73522528  0.47991226     0.09880
H1693       H  0.08306385  0.77476255  0.41797962     0.07890
Br1694     Br  0.09525365  0.81902959  0.45650906    -0.02710
C1695       C  0.16092297  0.83535727  0.46306754    -0.09350
C1696       C  0.16807623  0.80794258  0.46894566     0.06850
C1697       C  0.18912593  0.79550897  0.45336389    -0.03110
C1698       C  0.19990600  0.80905250  0.43060755    -0.07560
C1699       C  0.18973216  0.83472879  0.42226983     0.05960
C1700       C  0.17106185  0.84860227  0.43954574    -0.02590
Br1701     Br  0.15569081  0.88370144  0.43008851    -0.02280
H1702       H  0.14531748  0.84551385  0.47518926     0.09880
H1703       H  0.21504989  0.79854708  0.41814904     0.07890
Br1704     Br  0.20303021  0.75930116  0.46049230    -0.02710
C1705       C  0.50618781  0.15315408  0.22853980    -0.09350
C1706       C  0.49778844  0.13963300  0.20457408     0.06850
C1707       C  0.50806343  0.11304094  0.19916952    -0.03110
C1708       C  0.52928079  0.10229108  0.21546495    -0.07560
C1709       C  0.53982204  0.11741161  0.23769042     0.05960
C1710       C  0.52652372  0.14203665  0.24537883    -0.02590
Br1711     Br  0.53596091  0.16190285  0.27814846    -0.02280
H1712       H  0.49770319  0.17305652  0.23369058     0.09880
H1713       H  0.53865477  0.08290822  0.20970971     0.07890
Br1714     Br  0.49444014  0.09092265  0.16961776    -0.02710
C1715       C  0.51227248  0.15712665  0.14273448    -0.09350
C1716       C  0.49995750  0.17169102  0.16435282     0.06850
C1717       C  0.51065800  0.19778418  0.17143525    -0.03110
C1718       C  0.53465216  0.20740611  0.15894689    -0.07560
C1719       C  0.54839537  0.19141015  0.13944573     0.05960
C1720       C  0.53657168  0.16653494  0.13060152    -0.02590
Br1721     Br  0.55472538  0.14316331  0.10464486    -0.02280
H1722       H  0.50421764  0.13730039  0.13665530     0.09880
H1723       H  0.54348088  0.22681663  0.16555724     0.07890
Br1724     Br  0.49493826  0.22046231  0.19929189    -0.02710
C1725       C  0.39981748  0.20909668  0.16596969    -0.09350
C1726       C  0.39237725  0.20011129  0.13968567     0.06850
C1727       C  0.41047217  0.18242783  0.12550522    -0.03110
C1728       C  0.43374647  0.17177352  0.13902962    -0.07560
C1729       C  0.43836625  0.17729512  0.16695709     0.05960
C1730       C  0.42203064  0.19755863  0.17984067    -0.02590
Br1731     Br  0.42681886  0.20892629  0.21720735    -0.02280
H1732       H  0.38677051  0.22356291  0.17675952     0.09880
H1733       H  0.44642908  0.15674016  0.12862326     0.07890
Br1734     Br  0.40245525  0.16900498  0.08941988    -0.02710
C1735       C  0.43674932  0.14446599  0.23030621    -0.09350
C1736       C  0.43773432  0.13909474  0.20204302     0.06850
C1737       C  0.41930309  0.11958658  0.19083382    -0.03110
C1738       C  0.39829199  0.10874661  0.20701512    -0.07560
C1739       C  0.39537919  0.11698935  0.23431230     0.05960
C1740       C  0.41552587  0.13385846  0.24637572    -0.02590
Br1741     Br  0.41357962  0.14454688  0.28415493    -0.02280
H1742       H  0.45096158  0.15888651  0.23951257     0.09880
H1743       H  0.38309935  0.09527460  0.19776530     0.07890
Br1744     Br  0.42109434  0.10743731  0.15350742    -0.02710
C1745       C  0.21518012  0.52877856  0.15863909    -0.09350
C1746       C  0.20014411  0.54727144  0.14263024     0.06850
C1747       C  0.17212743  0.54231317  0.13781759    -0.03110
C1748       C  0.15914264  0.52031695  0.15097912    -0.07560
C1749       C  0.17334364  0.50368364  0.17000271     0.05960
C1750       C  0.20220636  0.50717660  0.17240982    -0.02590
Br1751     Br  0.22566076  0.48609126  0.19572937    -0.02280
H1752       H  0.23686467  0.53257494  0.16224450     0.09880
H1753       H  0.13721548  0.51773930  0.14811815     0.07890
Br1754     Br  0.15004673  0.56721722  0.11662980    -0.02710
C1755       C  0.11033884  0.51063445  0.19701583    -0.09350
C1756       C  0.13723640  0.50579547  0.20651013     0.06850
C1757       C  0.14826160  0.52346518  0.22670012    -0.03110
C1758       C  0.13349659  0.54635526  0.23538690    -0.07560
C1759       C  0.10812870  0.55311815  0.22353270     0.05960
C1760       C  0.09587707  0.53434590  0.20505843    -0.02590
Br1761     Br  0.06140945  0.54180164  0.18742080    -0.02280
H1762       H  0.10172208  0.49749494  0.18122328     0.09880
H1763       H  0.14282235  0.56010704  0.25025352     0.07890
Br1764     Br  0.18433255  0.51905879  0.24191104    -0.02710
C1765       C  0.11501756  0.42785911  0.18302449    -0.09350
C1766       C  0.13050013  0.44385244  0.20159941     0.06850
C1767       C  0.12814614  0.43778495  0.22986792    -0.03110
C1768       C  0.11459946  0.41366996  0.23824006    -0.07560
C1769       C  0.10278519  0.39574871  0.21898073     0.05960
C1770       C  0.10166313  0.40379371  0.19140751    -0.02590
Br1771     Br  0.08470380  0.38092807  0.16413737    -0.02280
H1772       H  0.11545927  0.43260158  0.16136473     0.09880
H1773       H  0.11491624  0.40793072  0.25969672     0.07890
Br1774     Br  0.14408554  0.46004761  0.25809918    -0.02710
C1775       C  0.16999036  0.43807480  0.14608678    -0.09350
C1776       C  0.17408892  0.44299351  0.17420442     0.06850
C1777       C  0.19434450  0.42783487  0.18822401    -0.03110
C1778       C  0.21059091  0.40922925  0.17407954    -0.07560
C1779       C  0.20422058  0.40144291  0.14707786     0.05960
C1780       C  0.18388706  0.41655695  0.13274738    -0.02590
Br1781     Br  0.17101121  0.40651943  0.09691082    -0.02280
H1782       H  0.15403288  0.44918643  0.13521586     0.09880
H1783       H  0.22652838  0.39847604  0.18536281     0.07890
Br1784     Br  0.19957467  0.42924635  0.22718452    -0.02710
C1785       C  0.12848753  0.22235795  0.55695683    -0.09350
C1786       C  0.11352324  0.20621209  0.57529544     0.06850
C1787       C  0.10947705  0.17818659  0.56957589    -0.03110
C1788       C  0.12202565  0.16645035  0.54661246    -0.07560
C1789       C  0.14000786  0.18181569  0.52986435     0.05960
C1790       C  0.14189533  0.21057522  0.53457503    -0.02590
Br1791     Br  0.16386400  0.23553988  0.51397680    -0.02280
H1792       H  0.13141468  0.24407812  0.56128361     0.09880
H1793       H  0.11948567  0.14457737  0.54324953     0.07890
Br1794     Br  0.09024695  0.15445540  0.59444806    -0.02710
C1795       C  0.21076171  0.14360861  0.56690789    -0.09350
C1796       C  0.19852802  0.11895469  0.57568669     0.06850
C1797       C  0.17845367  0.10640753  0.55895869    -0.03110
C1798       C  0.16867053  0.12034739  0.53576829    -0.07560
C1799       C  0.17821336  0.14690593  0.52941580     0.05960
C1800       C  0.20073967  0.15762043  0.54405810    -0.02590
Br1801     Br  0.21716382  0.19232920  0.53517540    -0.02280
H1802       H  0.22688959  0.15303276  0.57908869     0.09880
H1803       H  0.15157747  0.11168844  0.52442609     0.07890
Br1804     Br  0.16093482  0.07245676  0.56878915    -0.02710
C1805       C  0.17120523  0.10928607  0.43308376    -0.09350
C1806       C  0.19690276  0.11712177  0.42289385     0.06850
C1807       C  0.21333977  0.13539016  0.43826523    -0.03110
C1808       C  0.20272042  0.14767612  0.46194902    -0.07560
C1809       C  0.17525568  0.14335479  0.46949545     0.05960
C1810       C  0.16035567  0.12215607  0.45631366    -0.02590
Br1811     Br  0.12486048  0.11046543  0.46866563    -0.02280
H1812       H  0.15879030  0.09449218  0.42192082     0.09880
H1813       H  0.21518727  0.16235707  0.47308778     0.07890
Br1814     Br  0.24932692  0.14603623  0.42623233    -0.02710
C1815       C  0.14532869  0.22102194  0.43371434    -0.09350
C1816       C  0.11882979  0.21359953  0.42503717     0.06850
C1817       C  0.10432681  0.19346119  0.44015947    -0.03110
C1818       C  0.11714188  0.18056134  0.46252382    -0.07560
C1819       C  0.14503063  0.18531586  0.46838970     0.05960
C1820       C  0.15906781  0.20604019  0.45369498    -0.02590
Br1821     Br  0.19752182  0.21427637  0.45785876    -0.02280
H1822       H  0.15653805  0.23701646  0.42298621     0.09880
H1823       H  0.10598806  0.16498840  0.47377659     0.07890
Br1824     Br  0.06909858  0.17939699  0.42914297    -0.02710
loop_ 
_geom_bond_atom_site_label_1 
_geom_bond_atom_site_label_2 
_geom_bond_distance 
_geom_bond_site_symmetry_2 
_ccdc_geom_bond_type 
C1            C2   1.359       .  D
C1         C1809   1.495       .  S
C1         C1819   1.486       .  S
C2         C1789   1.504       .  S
C2         C1799   1.488       .  S
C3            C4   1.364       .  D
C3         C1766   1.503       .  S
C3         C1776   1.488       .  S
C4         C1749   1.504       .  S
C4         C1756   1.491       .  S
C5            C6   1.359       .  D
C5         C1729   1.495       .  S
C5         C1736   1.492       .  S
C6         C1706   1.490       .  S
C6         C1716   1.490       .  S
C7            C8   1.361       .  D
C7         C1686   1.495       .  S
C7         C1696   1.495       .  S
C8         C1666   1.493       .  S
C8         C1676   1.493       .  S
C9           C10   1.364       .  D
C9         C1646   1.504       .  S
C9         C1659   1.504       .  S
C10        C1626   1.493       .  S
C10        C1636   1.493       .  S
C11          C12   1.355       .  D
C11        C1606   1.492       .  S
C11        C1619   1.487       .  S
C12        C1586   1.488       .  S
C12        C1596   1.488       .  S
C13          C14   1.364       .  D
C13        C1546   1.488       .  S
C13        C1556   1.509       .  S
C14        C1566   1.483       .  S
C14        C1576   1.506       .  S
C15          C16   1.363       .  D
C15        C1509   1.496       .  S
C15        C1516   1.496       .  S
C16        C1526   1.485       .  S
C16        C1536   1.492       .  S
C17          C18   1.361       .  D
C17        C1486   1.498       .  S
C17        C1496   1.506       .  S
C18        C1466   1.483       .  S
C18        C1476   1.495       .  S
C19          C20   1.358       .  D
C19        C1446   1.484       .  S
C19        C1456   1.491       .  S
C20        C1426   1.489       .  S
C20        C1436   1.496       .  S
C21          C22   1.354       .  D
C21        C1406   1.492       .  S
C21        C1416   1.488       .  S
C22        C1386   1.491       .  S
C22        C1396   1.489       .  S
C23          C24   1.360       .  D
C23        C1366   1.491       .  S
C23        C1376   1.496       .  S
C24        C1346   1.490       .  S
C24        C1356   1.497       .  S
C25          C26   1.413       .  A
C25          C30   1.412       .  A
C25        C1359   1.494       .  S
C26          C27   1.406       .  A
C26          H31   1.082       .  S
C27          C28   1.407       .  A
C27        C1336   1.491       .  S
C28          C29   1.399       .  A
C28          H32   1.085       .  S
C29          C30   1.403       .  A
C29         C120   1.484       .  S
C30          H33   1.083       .  S
C34          C35   1.406       .  A
C34          C39   1.407       .  A
C34        C1326   1.474       .  S
C35          C36   1.405       .  A
C35          H40   1.083       .  S
C36          C37   1.405       .  A
C36        C1389   1.485       .  S
C37          C38   1.400       .  A
C37          H41   1.085       .  S
C38          C39   1.401       .  A
C38          C96   1.476       .  S
C39          H42   1.084       .  S
C43          C44   1.407       .  A
C43          C48   1.405       .  A
C43        C1399   1.473       .  S
C44          C45   1.399       .  A
C44          H49   1.084       .  S
C45          C46   1.400       .  A
C45          C95   1.476       .  S
C46          C47   1.405       .  A
C46          H50   1.085       .  S
C47          C48   1.404       .  A
C47        C1316   1.482       .  S
C48          H51   1.084       .  S
C52          C53   1.403       .  A
C52          C57   1.401       .  A
C52        C1589   1.475       .  S
C53          C54   1.402       .  A
C53          H58   1.085       .  S
C54          C55   1.400       .  A
C54          C88   1.475       .  S
C55          C56   1.407       .  A
C55          H59   1.084       .  S
C56          C57   1.403       .  A
C56        C1309   1.474       .  S
C57          H60   1.084       .  S
C61          C62   1.404       .  A
C61          C66   1.401       .  A
C61        C1296   1.472       .  S
C62          C63   1.402       .  A
C62          H67   1.085       .  S
C63          C64   1.397       .  A
C63          C84   1.474       .  S
C64          C65   1.407       .  A
C64          H68   1.085       .  S
C65          C66   1.404       .  A
C65        C1599   1.479       .  S
C66          H69   1.083       .  S
C70          C71   1.402       .  A
C70          C75   1.404       .  A
C70        C1349   1.471       .  S
C71          C72   1.397       .  A
C71          H76   1.085       .  S
C72          C73   1.397       .  A
C72         C122   1.474       .  S
C73          C74   1.410       .  A
C73          H77   1.084       .  S
C74          C75   1.406       .  A
C74        C1286   1.487       .  S
C75          H78   1.083       .  S
O79         Mg81   2.155       .  S
O79         Mg87   2.141       .  S
O79         C114   1.236       .  S
C80         H119   1.081       .  S
C80          O93   1.236       .  S
C80         O117   1.271       .  A
Mg81        O110   2.144       .  S
Mg81        O125   2.315       .  S
Mg81        O121   2.262       .  S
Mg81         O92   2.314       .  S
O82        Mg124   2.144       .  S
O82        Mg107   2.147       .  S
O82         C103   1.235       .  S
O83         C114   1.272       .  A
O83        Mg107   2.310       .  S
C84          O86   1.269       .  A
C84          O98   1.273       .  A
O85         C113   1.272       .  A
O85         Mg87   2.315       .  S
O86        Mg118   2.265       .  S
Mg87         O93   2.156       .  S
Mg87        O101   2.272       .  S
Mg87         O89   2.322       .  S
C88         O126   1.270       .  A
C88          O94   1.274       .  A
O89          C96   1.276       .  A
H90         C103   1.081       .  S
C91         H116   1.081       .  S
C91         O105   1.235       .  S
C91         O106   1.270       .  A
O92         C115   1.272       .  A
O93        Mg107   2.146       .  S
O94        Mg124   2.313       .  S
C95         O108   1.270       .  A
C95         O100   1.276       .  A
C96         O123   1.271       .  A
Mg97        O104   2.156       .  S
Mg97        O105   2.144       .  S
Mg97         O98   2.298       .  S
Mg97         O99   2.302       .  S
Mg97        O126   2.261       .  S
O99         C103   1.270       .  A
O100       Mg107   2.321       .  S
O101        C120   1.272       .  A
O102        C122   1.271       .  A
O102       Mg118   2.289       .  S
O104       Mg118   2.145       .  S
O104        C115   1.236       .  S
O105       Mg124   2.147       .  S
O106       Mg118   2.305       .  S
Mg107       O123   2.256       .  S
O108       Mg124   2.253       .  S
H109        C114   1.081       .  S
O110       Mg118   2.161       .  S
O110        C113   1.236       .  S
H111        C113   1.081       .  S
H112        C115   1.081       .  S
O117       Mg124   2.305       .  S
C120        O125   1.274       .  A
O121        C122   1.270       .  A
C127        C128   1.377   1_556  D
C127       C1329   1.490       .  S
C127       C1339   1.506       .  S
C128       C1266   1.503       .  S
C128       C1276   1.539       .  S
C129        C130   1.358       .  D
C129       C1289   1.489       .  S
C129       C1299   1.492       .  S
C130       C1246   1.491       .  S
C130       C1256   1.501   1_565  S
C131        C132   1.354       .  D
C131       C1306   1.486       .  S
C131       C1319   1.490       .  S
C132       C1226   1.489       .  S
C132       C1236   1.491       .  S
C133        C134   1.404       .  A
C133        C138   1.403       .  A
C133       C1419   1.474       .  S
C134        C135   1.401       .  A
C134        H139   1.084       .  S
C135        C136   1.406       .  A
C135        C230   1.483       .  S
C136        C137   1.407       .  A
C136        H140   1.084       .  S
C137        C138   1.403       .  A
C137       C1216   1.480       .  S
C138        H141   1.084       .  S
C142        C143   1.411       .  A
C142        C147   1.407       .  A
C142       C1549   1.485       .  S
C143        C144   1.400       .  A
C143        H148   1.084       .  S
C144        C145   1.392       .  A
C144        C192   1.479       .  S
C145        C146   1.404       .  A
C145        H149   1.083       .  S
C146        C147   1.407       .  A
C146       C1206   1.481       .  S
C147        H150   1.082       .  S
C151        C152   1.404       .  A
C151        C156   1.406       .  A
C151       C1196   1.478       .  S
C152        C153   1.397       .  A
C152        H157   1.084       .  S
C153        C154   1.403       .  A
C153        C228   1.482       .  S
C154        C155   1.408       .  A
C154        H158   1.084       .  S
C155        C156   1.407       .  A
C155       C1409   1.486       .  S
C156        H159   1.083       .  S
C160        C161   1.403       .  A
C160        C165   1.405       .  A
C160       C1639   1.476       .  S
C161        C162   1.403       .  A
C161        H166   1.084       .  S
C162        C163   1.406       .  A
C162        C204   1.482       .  S
C163        C164   1.404       .  A
C163        H167   1.084       .  S
C164        C165   1.404       .  A
C164       C1186   1.480       .  S
C165        H168   1.084       .  S
C169        C170   1.407       .  A
C169        C174   1.411       .  A
C169       C1629   1.489       .  S
C170        C171   1.405       .  A
C170        H175   1.083       .  S
C171        C172   1.405       .  A
C171       C1249   1.482       .  S
C172        C173   1.398       .  A
C172        H176   1.084       .  S
C173        C174   1.405       .  A
C173        C203   1.486       .  S
C174        H177   1.084       .  S
C178        C179   1.403       .  A
C178        C183   1.404       .  A
C178       C1259   1.473       .  S
C179        C180   1.402       .  A
C179        H184   1.084       .  S
C180        C181   1.402       .  A
C180       C1559   1.473       .  S
C181        C182   1.402       .  A
C181        H185   1.085       .  S
C182        C183   1.404       .  A
C182        C196   1.482       .  S
C183        H186   1.084       .  S
O187       Mg189   2.151       .  S
O187       Mg195   2.165       .  S
O187        C222   1.235       .  S
C188        H227   1.081       .  S
C188        O201   1.234       .  S
C188        O225   1.268       .  A
Mg189       O218   2.162       .  S
Mg189       O233   2.293       .  S
Mg189       O229   2.268       .  S
Mg189       O200   2.293       .  S
O190       Mg232   2.162       .  S
O190       Mg215   2.145       .  S
O190        C211   1.234       .  S
O191        C222   1.269       .  A
O191       Mg215   2.296       .  S
C192        O194   1.272       .  A
C192        O206   1.272       .  A
O193        C221   1.268       .  A
O193       Mg195   2.295       .  S
O194       Mg226   2.249       .  S
Mg195       O201   2.152       .  S
Mg195       O209   2.265       .  S
Mg195       O197   2.302       .  S
C196        O234   1.271       .  A
C196        O202   1.276       .  A
O197        C204   1.275       .  A
H198        C211   1.081       .  S
C199        H224   1.081       .  S
C199        O213   1.234       .  S
C199        O214   1.268       .  A
O200        C223   1.268       .  A
O201       Mg215   2.166       .  S
O202       Mg232   2.307       .  S
C203        O216   1.274       .  A
C203        O208   1.275       .  A
C204        O231   1.272       .  A
Mg205       O212   2.147       .  S
Mg205       O213   2.165       .  S
Mg205       O206   2.290       .  S
Mg205       O207   2.292       .  S
Mg205       O234   2.250       .  S
O207        C211   1.268       .  A
O208       Mg215   2.308       .  S
O209        C228   1.273       .  A
O210        C230   1.274       .  A
O210       Mg226   2.300       .  S
O212       Mg226   2.165       .  S
O212        C223   1.234       .  S
O213       Mg232   2.146       .  S
O214       Mg226   2.293       .  S
Mg215       O231   2.256       .  S
O216       Mg232   2.264       .  S
H217        C222   1.081       .  S
O218       Mg226   2.141       .  S
O218        C221   1.234       .  S
H219        C221   1.081       .  S
H220        C223   1.081       .  S
O225       Mg232   2.295       .  S
C228        O233   1.274       .  A
O229        C230   1.273       .  A
C235        C236   1.404       .  A
C235        C240   1.404       .  A
C235       C1176   1.479       .  S
C236        C237   1.403       .  A
C236        H241   1.084       .  S
C237        C238   1.405       .  A
C237       C1369   1.475       .  S
C238        C239   1.405       .  A
C238        H242   1.084       .  S
C239        C240   1.400       .  A
C239        C305   1.481       .  S
C240        H243   1.084       .  S
C244        C245   1.402       .  A
C244        C249   1.406       .  A
C244       C1166   1.475       .  S
C245        C246   1.400       .  A
C245        H250   1.084       .  S
C246        C247   1.400       .  A
C246       C1519   1.467       .  S
C247        C248   1.399       .  A
C247        H251   1.085       .  S
C248        C249   1.407       .  A
C248        C298   1.481       .  S
C249        H252   1.084       .  S
C253        C254   1.403       .  A
C253        C258   1.404       .  A
C253       C1159   1.477       .  S
C254        C255   1.408       .  A
C254        H259   1.084       .  S
C255        C256   1.408       .  A
C255       C1379   1.489       .  S
C256        C257   1.403       .  A
C256        H260   1.083       .  S
C257        C258   1.404       .  A
C257        C306   1.485       .  S
C258        H261   1.084       .  S
C262        C263   1.406       .  A
C262        C267   1.406       .  A
C262       C1146   1.485       .  S
C263        C264   1.406       .  A
C263        H268   1.083       .  S
C264        C265   1.409       .  A
C264       C1669   1.484       .  S
C265        C266   1.404       .  A
C265        H269   1.084       .  S
C266        C267   1.397       .  A
C266        C330   1.484       .  S
C267        H270   1.084       .  S
C271        C272   1.404       .  A
C271        C276   1.405       .  A
C271       C1229   1.473       .  S
C272        C273   1.404       .  A
C272        H277   1.084       .  S
C273        C274   1.410       .  A
C273       C1506   1.487       .  S
C274        C275   1.406       .  A
C274        H278   1.084       .  S
C275        C276   1.400       .  A
C275        C294   1.487       .  S
C276        H279   1.085       .  S
C280        C281   1.408       .  A
C280        C285   1.408       .  A
C280       C1239   1.486       .  S
C281        C282   1.406       .  A
C281        H286   1.083       .  S
C282        C283   1.404       .  A
C282       C1679   1.479       .  S
C283        C284   1.399       .  A
C283        H287   1.084       .  S
C284        C285   1.401       .  A
C284        C332   1.482       .  S
C285        H288   1.084       .  S
O289       Mg291   2.147       .  S
O289       Mg297   2.162       .  S
O289        C324   1.233       .  S
C290        H329   1.081       .  S
C290        O303   1.234       .  S
C290        O327   1.268       .  A
Mg291       O320   2.169       .  S
Mg291       O335   2.303       .  S
Mg291       O331   2.252       .  S
Mg291       O302   2.293       .  S
O292       Mg334   2.166       .  S
O292       Mg317   2.149       .  S
O292        C313   1.234       .  S
O293        C324   1.267       .  A
O293       Mg317   2.292       .  S
C294        O296   1.275       .  A
C294        O308   1.275       .  A
O295        C323   1.269       .  A
O295       Mg297   2.297       .  S
O296       Mg328   2.281       .  S
Mg297       O303   2.146       .  S
Mg297       O311   2.262       .  S
Mg297       O299   2.310       .  S
C298        O336   1.273       .  A
C298        O304   1.273       .  A
O299        C306   1.276       .  A
H300        C313   1.081       .  S
C301        H326   1.081       .  S
C301        O315   1.235       .  S
C301        O316   1.269       .  A
O302        C325   1.268       .  A
O303       Mg317   2.168       .  S
O304       Mg334   2.293       .  S
C305        O318   1.272       .  A
C305        O310   1.273       .  A
C306        O333   1.272       .  A
Mg307       O314   2.143       .  S
Mg307       O315   2.161       .  S
Mg307       O308   2.300       .  S
Mg307       O309   2.296       .  S
Mg307       O336   2.259       .  S
O309        C313   1.269       .  A
O310       Mg317   2.293       .  S
O311        C330   1.274       .  A
O312        C332   1.276       .  A
O312       Mg328   2.305       .  S
O314       Mg328   2.161       .  S
O314        C325   1.234       .  S
O315       Mg334   2.149       .  S
O316       Mg328   2.298       .  S
Mg317       O333   2.258       .  S
O318       Mg334   2.254       .  S
H319        C324   1.081       .  S
O320       Mg328   2.157       .  S
O320        C323   1.235       .  S
H321        C323   1.081       .  S
H322        C325   1.081       .  S
O327       Mg334   2.294       .  S
C330        O335   1.275       .  A
O331        C332   1.272       .  A
C337        C338   1.359       .  D
C337       C1149   1.493       .  S
C337       C1156   1.492       .  S
C338       C1126   1.492   1_565  S
C338       C1136   1.492   1_565  S
C339        C340   1.407       .  A
C339        C344   1.406       .  A
C339       C1579   1.479       .  S
C340        C341   1.403       .  A
C340        H345   1.084       .  S
C341        C342   1.395       .  A
C341        C398   1.481       .  S
C342        C343   1.410       .  A
C342        H346   1.084       .  S
C343        C344   1.409       .  A
C343       C1116   1.495       .  S
C344        H347   1.081       .  S
C348        C349   1.408       .  A
C348        C353   1.404       .  A
C348       C1529   1.484       .  S
C349        C350   1.406       .  A
C349        H354   1.083       .  S
C350        C351   1.406       .  A
C350       C1106   1.474       .  S
C351        C352   1.400       .  A
C351        H355   1.085       .  S
C352        C353   1.394       .  A
C352        C402   1.474       .  S
C353        H356   1.084       .  S
C357        C358   1.406       .  A
C357        C362   1.405       .  A
C357       C1796   1.480       .  S
C358        C359   1.408       .  A
C358        H363   1.081       .  S
C359        C360   1.410       .  A
C359       C1139   1.491       .  S
C360        C361   1.395       .  A
C360        H364   1.084       .  S
C361        C362   1.397       .  A
C361        C434   1.475       .  S
C362        H365   1.085       .  S
C366        C367   1.406       .  A
C366        C371   1.407       .  A
C366       C1569   1.486       .  S
C367        C368   1.404       .  A
C367        H372   1.082       .  S
C368        C369   1.406       .  A
C368       C1129   1.472       .  S
C369        C370   1.401       .  A
C369        H373   1.084       .  S
C370        C371   1.393       .  A
C370        C436   1.475       .  S
C371        H374   1.084       .  S
C375        C376   1.404       .  A
C375        C380   1.407       .  A
C375       C1096   1.481       .  S
C376        C377   1.403       .  A
C376        H381   1.084       .  S
C377        C378   1.404       .  A
C377       C1786   1.472       .  S
C378        C379   1.400       .  A
C378        H382   1.085       .  S
C379        C380   1.401       .  A
C379        C410   1.477       .  S
C380        H383   1.084       .  S
C384        C385   1.406       .  A
C384        C389   1.402       .  A
C384       C1539   1.477       .  S
C385        C386   1.404       .  A
C385        H390   1.085       .  S
C386        C387   1.400       .  A
C386        C409   1.477       .  S
C387        C388   1.405       .  A
C387        H391   1.085       .  S
C388        C389   1.405       .  A
C388       C1086   1.477       .  S
C389        H392   1.084       .  S
O393       Mg395   2.156       .  S
O393       Mg401   2.134       .  S
O393        C428   1.236       .  S
C394        H433   1.081       .  S
C394        O407   1.235       .  S
C394        O431   1.270       .  A
Mg395       O424   2.140       .  S
Mg395       O439   2.292       .  S
Mg395       O435   2.261       .  S
Mg395       O406   2.315       .  S
O396       Mg438   2.151       .  S
O396       Mg421   2.153       .  S
O396        C417   1.235       .  S
O397        C428   1.273       .  A
O397       Mg421   2.320       .  S
C398        O400   1.270       .  A
C398        O412   1.275       .  A
O399        C427   1.273       .  A
O399       Mg401   2.320       .  S
O400       Mg432   2.269       .  S
Mg401       O407   2.149       .  S
Mg401       O415   2.258       .  S
Mg401       O403   2.298       .  S
C402        O440   1.271       .  A
C402        O408   1.273       .  A
O403        C410   1.271       .  A
H404        C417   1.081       .  S
C405        H430   1.081       .  S
C405        O419   1.234       .  S
C405        O420   1.269       .  A
O406        C429   1.272       .  A
O407       Mg421   2.138       .  S
O408       Mg438   2.283       .  S
C409        O422   1.271       .  A
C409        O414   1.274       .  A
C410        O437   1.270       .  A
Mg411       O418   2.155       .  S
Mg411       O419   2.153       .  S
Mg411       O412   2.305       .  S
Mg411       O413   2.307       .  S
Mg411       O440   2.274       .  S
O413        C417   1.270       .  A
O414       Mg421   2.307       .  S
O415        C434   1.267       .  A
O416        C436   1.272       .  A
O416       Mg432   2.286       .  S
O418       Mg432   2.149       .  S
O418        C429   1.235       .  S
O419       Mg438   2.156       .  S
O420       Mg432   2.304       .  S
Mg421       O437   2.272       .  S
O422       Mg438   2.272       .  S
H423        C428   1.081       .  S
O424       Mg432   2.159       .  S
O424        C427   1.236       .  S
H425        C427   1.081       .  S
H426        C429   1.081       .  S
O431       Mg438   2.305       .  S
C434        O439   1.270       .  A
O435        C436   1.267       .  A
C441        C442   1.361       .  D
C441       C1089   1.495       .  S
C441       C1099   1.492       .  S
C442       C1189   1.493       .  S
C442       C1199   1.490       .  S
C443        C444   1.360   1_556  D
C443       C1109   1.496       .  S
C443       C1119   1.491       .  S
C444       C1066   1.495       .  S
C444       C1079   1.488       .  S
C445        C446   1.359       .  D
C445       C1046   1.492   1_565  S
C445       C1059   1.489   1_565  S
C446       C1029   1.495       .  S
C446       C1036   1.496       .  S
C447        C448   1.410       .  A
C447        C452   1.407       .  A
C447       C1779   1.490       .  S
C448        C449   1.408       .  A
C448        H453   1.082       .  S
C449        C450   1.405       .  A
C449       C1076   1.477       .  S
C450        C451   1.397       .  A
C450        H454   1.085       .  S
C451        C452   1.392       .  A
C451        C542   1.472       .  S
C452        H455   1.084       .  S
C456        C457   1.409       .  A
C456        C461   1.407       .  A
C456       C1069   1.483       .  S
C457        C458   1.408       .  A
C457        H462   1.083       .  S
C458        C459   1.410       .  A
C458       C1726   1.489       .  S
C459        C460   1.400       .  A
C459        H463   1.085       .  S
C460        C461   1.398       .  A
C460        C518   1.480       .  S
C461        H464   1.085       .  S
C465        C466   1.402       .  A
C465        C470   1.404       .  A
C465       C1739   1.469       .  S
C466        C467   1.401       .  A
C466        H471   1.084       .  S
C467        C468   1.404       .  A
C467       C1056   1.474       .  S
C468        C469   1.403       .  A
C468        H472   1.085       .  S
C469        C470   1.399       .  A
C469        C517   1.473       .  S
C470        H473   1.085       .  S
C474        C475   1.404       .  A
C474        C479   1.405       .  A
C474       C1806   1.476       .  S
C475        C476   1.407       .  A
C475        H480   1.083       .  S
C476        C477   1.406       .  A
C476       C1049   1.482       .  S
C477        C478   1.397       .  A
C477        H481   1.085       .  S
C478        C479   1.402       .  A
C478        C510   1.474       .  S
C479        H482   1.085       .  S
C483        C484   1.404       .  A
C483        C488   1.405       .  A
C483       C1016   1.473       .  S
C484        C485   1.406       .  A
C484        H489   1.082       .  S
C485        C486   1.408       .  A
C485       C1816   1.486       .  S
C486        C487   1.395       .  A
C486        H490   1.084       .  S
C487        C488   1.400       .  A
C487        C506   1.474       .  S
C488        H491   1.085       .  S
C492        C493   1.407       .  A
C492        C497   1.406       .  A
C492       C1769   1.479       .  S
C493        C494   1.402       .  A
C493        H498   1.084       .  S
C494        C495   1.398       .  A
C494        C544   1.479       .  S
C495        C496   1.406       .  A
C495        H499   1.084       .  S
C496        C497   1.409       .  A
C496       C1006   1.488       .  S
C497        H500   1.083       .  S
O501       Mg503   2.160       .  S
O501       Mg509   2.143       .  S
O501        C536   1.235       .  S
C502        H541   1.081       .  S
C502        O515   1.235       .  S
C502        O539   1.271       .  A
Mg503       O532   2.144       .  S
Mg503       O547   2.283       .  S
Mg503       O543   2.279       .  S
Mg503       O514   2.309       .  S
O504       Mg546   2.145       .  S
O504       Mg529   2.153       .  S
O504        C525   1.235       .  S
O505        C536   1.272       .  A
O505       Mg529   2.313       .  S
C506        O508   1.269       .  A
C506        O520   1.272       .  A
O507        C535   1.272       .  A
O507       Mg509   2.316       .  S
O508       Mg540   2.265       .  S
Mg509       O515   2.149       .  S
Mg509       O523   2.259       .  S
Mg509       O511   2.307       .  S
C510        O548   1.270       .  A
C510        O516   1.273       .  A
O511        C518   1.274       .  A
H512        C525   1.081       .  S
C513        H538   1.081       .  S
C513        O527   1.235       .  S
C513        O528   1.270       .  A
O514        C537   1.271       .  A
O515       Mg529   2.141       .  S
O516       Mg546   2.298       .  S
C517        O530   1.269       .  A
C517        O522   1.274       .  A
C518        O545   1.271       .  A
Mg519       O526   2.153       .  S
Mg519       O527   2.145       .  S
Mg519       O520   2.289       .  S
Mg519       O521   2.307       .  S
Mg519       O548   2.267       .  S
O521        C525   1.271       .  A
O522       Mg529   2.308       .  S
O523        C542   1.268       .  A
O524        C544   1.272       .  A
O524       Mg540   2.295       .  S
O526       Mg540   2.146       .  S
O526        C537   1.235       .  S
O527       Mg546   2.151       .  S
O528       Mg540   2.309       .  S
Mg529       O545   2.269       .  S
O530       Mg546   2.255       .  S
H531        C536   1.081       .  S
O532       Mg540   2.155       .  S
O532        C535   1.236       .  S
H533        C535   1.081       .  S
H534        C537   1.081       .  S
O539       Mg546   2.308       .  S
C542        O547   1.272       .  A
O543        C544   1.270       .  A
C549        C550   1.361       .  D
C549       C1009   1.491       .  S
C549       C1019   1.487       .  S
C550        C986   1.495       .  S
C550        C999   1.489       .  S
C551        C552   1.357   1_556  D
C551       C1209   1.485       .  S
C551       C1219   1.494       .  S
C552        C966   1.488       .  S
C552        C976   1.497       .  S
C553        C554   1.407       .  A
C553        C558   1.402       .  A
C553        C996   1.477       .  S
C554        C555   1.406       .  A
C554        H559   1.084       .  S
C555        C556   1.406       .  A
C555       C1459   1.482       .  S
C556        C557   1.402       .  A
C556        H560   1.084       .  S
C557        C558   1.396       .  A
C557        C616   1.478       .  S
C558        H561   1.085       .  S
C562        C563   1.424       .  A
C562        C567   1.405       .  A
C562       C1649   1.515       .  S
C563        C564   1.412       .  A
C563        H568   1.079       .  S
C564        C565   1.403       .  A
C564        C989   1.486       .  S
C565        C566   1.397       .  A
C565        H569   1.084       .  S
C566        C567   1.391       .  A
C566        C612   1.478       .  S
C567        H570   1.075       .  S
C571        C572   1.402       .  A
C571        C576   1.407       .  A
C571       C1719   1.474       .  S
C572        C573   1.401       .  A
C572        H577   1.084       .  S
C573        C574   1.400       .  A
C573        C979   1.469       .  S
C574        C575   1.399       .  A
C574        H578   1.085       .  S
C575        C576   1.406       .  A
C575        C624   1.481       .  S
C576        H579   1.084       .  S
C580        C581   1.401       .  A
C580        C585   1.403       .  A
C580       C1449   1.473       .  S
C581        C582   1.401       .  A
C581        H586   1.084       .  S
C582        C583   1.406       .  A
C582        C969   1.474       .  S
C583        C584   1.403       .  A
C583        H587   1.084       .  S
C584        C585   1.401       .  A
C584        C623   1.481       .  S
C585        H588   1.085       .  S
C589        C590   1.407       .  A
C589        C594   1.407       .  A
C589        C959   1.482       .  S
C590        C591   1.401       .  A
C590        H595   1.084       .  S
C591        C592   1.399       .  A
C591        C648   1.480       .  S
C592        C593   1.404       .  A
C592        H596   1.084       .  S
C593        C594   1.407       .  A
C593       C1709   1.484       .  S
C594        H597   1.084       .  S
C598        C599   1.411       .  A
C598        C603   1.405       .  A
C598       C1656   1.484       .  S
C599        C600   1.409       .  A
C599        H604   1.081       .  S
C600        C601   1.407       .  A
C600        C650   1.494       .  S
C601        C602   1.403       .  A
C601        H605   1.084       .  S
C602        C603   1.404       .  A
C602        C949   1.480       .  S
C603        H606   1.084       .  S
O607       Mg609   2.158       .  S
O607       Mg615   2.167       .  S
O607        C642   1.234       .  S
C608        H647   1.081       .  S
C608        O621   1.233       .  S
C608        O645   1.267       .  A
Mg609       O638   2.162       .  S
Mg609       O653   2.308       .  S
Mg609       O649   2.263       .  S
Mg609       O620   2.292       .  S
O610       Mg652   2.168       .  S
O610       Mg635   2.139       .  S
O610        C631   1.236       .  S
O611        C642   1.269       .  A
O611       Mg635   2.299       .  S
C612        O614   1.277       .  A
C612        O626   1.271       .  A
O613        C641   1.268       .  A
O613       Mg615   2.292       .  S
O614       Mg646   2.277       .  S
Mg615       O621   2.141       .  S
Mg615       O629   2.241       .  S
Mg615       O617   2.299       .  S
C616        O654   1.271       .  A
C616        O622   1.271       .  A
O617        C624   1.274       .  A
H618        C631   1.081       .  S
C619        H644   1.081       .  S
C619        O633   1.235       .  S
C619        O634   1.269       .  A
O620        C643   1.268       .  A
O621       Mg635   2.161       .  S
O622       Mg652   2.284       .  S
C623        O636   1.271       .  A
C623        O628   1.275       .  A
C624        O651   1.272       .  A
Mg625       O632   2.150       .  S
Mg625       O633   2.157       .  S
Mg625       O626   2.284       .  S
Mg625       O627   2.293       .  S
Mg625       O654   2.252       .  S
O627        C631   1.269       .  A
O628       Mg635   2.307       .  S
O629        C648   1.271       .  A
O630        C650   1.282       .  A
O630       Mg646   2.351       .  S
O632       Mg646   2.164       .  S
O632        C643   1.234       .  S
O633       Mg652   2.140       .  S
O634       Mg646   2.295       .  S
Mg635       O651   2.249       .  S
O636       Mg652   2.245       .  S
H637        C642   1.081       .  S
O638       Mg646   2.148       .  S
O638        C641   1.234       .  S
H639        C641   1.081       .  S
H640        C643   1.081       .  S
O645       Mg652   2.290       .  S
C648        O653   1.276       .  A
O649        C650   1.275       .  A
C655        C656   1.363       .  D
C655        C929   1.492       .  S
C655        C936   1.496       .  S
C656        C946   1.495       .  S
C656        C956   1.488   1_565  S
C657        C658   1.405       .  A
C657        C662   1.408       .  A
C657        C926   1.485       .  S
C658        C659   1.405       .  A
C658        H663   1.084       .  S
C659        C660   1.406       .  A
C659       C1609   1.476       .  S
C660        C661   1.399       .  A
C660        H664   1.085       .  S
C661        C662   1.400       .  A
C661        C728   1.478       .  S
C662        H665   1.084       .  S
C666        C667   1.402       .  A
C666        C671   1.404       .  A
C666       C1479   1.477       .  S
C667        C668   1.406       .  A
C667        H672   1.084       .  S
C668        C669   1.408       .  A
C668        C939   1.480       .  S
C669        C670   1.404       .  A
C669        H673   1.084       .  S
C670        C671   1.404       .  A
C670        C727   1.479       .  S
C671        H674   1.085       .  S
C675        C676   1.404       .  A
C675        C680   1.401       .  A
C675       C1616   1.474       .  S
C676        C677   1.399       .  A
C676        H681   1.085       .  S
C677        C678   1.401       .  A
C677        C752   1.475       .  S
C678        C679   1.406       .  A
C678        H682   1.084       .  S
C679        C680   1.401       .  A
C679        C916   1.470       .  S
C680        H683   1.084       .  S
C684        C685   1.406       .  A
C684        C689   1.402       .  A
C684       C1429   1.467       .  S
C685        C686   1.399       .  A
C685        H690   1.085       .  S
C686        C687   1.401       .  A
C686        C754   1.474       .  S
C687        C688   1.405       .  A
C687        H691   1.085       .  S
C688        C689   1.402       .  A
C688        C909   1.480       .  S
C689        H692   1.084       .  S
C693        C694   1.402       .  A
C693        C698   1.407       .  A
C693       C1469   1.479       .  S
C694        C695   1.399       .  A
C694        H699   1.083       .  S
C695        C696   1.411       .  A
C695       C1269   1.478       .  S
C696        C697   1.405       .  A
C696        H700   1.080       .  S
C697        C698   1.398       .  A
C697        C720   1.486       .  S
C698        H701   1.084       .  S
C702        C703   1.408       .  A
C702        C707   1.411       .  A
C702       C1279   1.489       .  S
C703        C704   1.410       .  A
C703        H708   1.083       .  S
C704        C705   1.411       .  A
C704       C1439   1.487       .  S
C705        C706   1.398       .  A
C705        H709   1.084       .  S
C706        C707   1.392       .  A
C706        C716   1.483       .  S
C707        H710   1.084       .  S
O711       Mg713   2.143       .  S
O711       Mg719   2.144       .  S
O711        C746   1.236       .  S
C712        H751   1.081       .  S
C712        O725   1.235       .  S
C712        O749   1.271       .  A
Mg713       O742   2.143       .  S
Mg713       O757   2.304       .  S
Mg713       O753   2.247       .  S
Mg713       O724   2.313       .  S
O714       Mg756   2.148       .  S
O714       Mg739   2.165       .  S
O714        C735   1.236       .  S
O715        C746   1.270       .  A
O715       Mg739   2.303       .  S
C716        O718   1.269       .  A
C716        O730   1.280       .  A
O717        C745   1.271       .  A
O717       Mg719   2.305       .  S
O718       Mg750   2.257       .  S
Mg719       O725   2.149       .  S
Mg719       O733   2.266       .  S
Mg719       O721   2.308       .  S
C720        O758   1.274       .  A
C720        O726   1.274       .  A
O721        C728   1.274       .  A
H722        C735   1.081       .  S
C723        H748   1.081       .  S
C723        O737   1.236       .  S
C723        O738   1.273       .  A
O724        C747   1.273       .  A
O725       Mg739   2.142       .  S
O726       Mg756   2.302       .  S
C727        O740   1.273       .  A
C727        O732   1.273       .  A
C728        O755   1.271       .  A
Mg729       O736   2.167       .  S
Mg729       O737   2.149       .  S
Mg729       O730   2.339       .  S
Mg729       O731   2.316       .  S
Mg729       O758   2.304       .  S
O731        C735   1.272       .  A
O732       Mg739   2.306       .  S
O733        C752   1.271       .  A
O734        C754   1.274       .  A
O734       Mg750   2.323       .  S
O736       Mg750   2.145       .  S
O736        C747   1.237       .  S
O737       Mg756   2.171       .  S
O738       Mg750   2.318       .  S
Mg739       O755   2.268       .  S
O740       Mg756   2.286       .  S
H741        C746   1.081       .  S
O742       Mg750   2.150       .  S
O742        C745   1.236       .  S
H743        C745   1.081       .  S
H744        C747   1.081       .  S
O749       Mg756   2.306       .  S
C752        O757   1.273       .  A
O753        C754   1.268       .  A
C759        C760   1.358       .  D
C759        C906   1.489       .  S
C759        C919   1.495       .  S
C760        C886   1.491       .  S
C760        C896   1.493       .  S
C761        C762   1.405       .  A
C761        C766   1.402       .  A
C761       C1039   1.475       .  S
C762        C763   1.408       .  A
C762        H767   1.083       .  S
C763        C764   1.411       .  A
C763       C1699   1.488       .  S
C764        C765   1.403       .  A
C764        H768   1.084       .  S
C765        C766   1.400       .  A
C765        C824   1.484       .  S
C766        H769   1.085       .  S
C770        C771   1.414       .  A
C770        C775   1.406       .  A
C770       C1026   1.486       .  S
C771        C772   1.418       .  A
C771        H776   1.076       .  S
C772        C773   1.413       .  A
C772       C1489   1.512       .  S
C773        C774   1.385       .  A
C773        H777   1.081       .  S
C774        C775   1.394       .  A
C774        C820   1.475       .  S
C775        H778   1.084       .  S
C779        C780   1.405       .  A
C779        C784   1.411       .  A
C779        C879   1.485       .  S
C780        C781   1.402       .  A
C780        H785   1.084       .  S
C781        C782   1.402       .  A
C781       C1746   1.470       .  S
C782        C783   1.400       .  A
C782        H786   1.085       .  S
C783        C784   1.405       .  A
C783        C856   1.485       .  S
C784        H787   1.084       .  S
C788        C789   1.403       .  A
C788        C793   1.405       .  A
C788        C899   1.472       .  S
C789        C790   1.404       .  A
C789        H794   1.083       .  S
C790        C791   1.409       .  A
C790       C1759   1.486       .  S
C791        C792   1.404       .  A
C791        H795   1.084       .  S
C792        C793   1.402       .  A
C792        C832   1.486       .  S
C793        H796   1.085       .  S
C797        C798   1.407       .  A
C797        C802   1.409       .  A
C797        C889   1.488       .  S
C798        C799   1.405       .  A
C798        H803   1.083       .  S
C799        C800   1.404       .  A
C799       C1689   1.474       .  S
C800        C801   1.399       .  A
C800        H804   1.085       .  S
C801        C802   1.399       .  A
C801        C831   1.482       .  S
C802        H805   1.084       .  S
C806        C807   1.399       .  A
C806        C811   1.404       .  A
C806        C866   1.474       .  S
C807        C808   1.398       .  A
C807        H812   1.084       .  S
C808        C809   1.410       .  A
C808       C1499   1.475       .  S
C809        C810   1.410       .  A
C809        H813   1.084       .  S
C810        C811   1.406       .  A
C810        C858   1.491       .  S
C811        H814   1.084       .  S
O815       Mg817   2.159       .  S
O815       Mg823   2.162       .  S
O815        C850   1.236       .  S
C816        H855   1.081       .  S
C816        O829   1.235       .  S
C816        O853   1.269       .  A
Mg817       O846   2.164       .  S
Mg817       O861   2.313       .  S
Mg817       O857   2.266       .  S
Mg817       O828   2.292       .  S
O818       Mg860   2.167       .  S
O818       Mg843   2.142       .  S
O818        C839   1.235       .  S
O819        C850   1.270       .  A
O819       Mg843   2.303       .  S
C820        O822   1.277       .  A
C820        O834   1.270       .  A
O821        C849   1.269       .  A
O821       Mg823   2.298       .  S
O822       Mg854   2.276       .  S
Mg823       O829   2.146       .  S
Mg823       O837   2.259       .  S
Mg823       O825   2.309       .  S
C824        O862   1.271       .  A
C824        O830   1.275       .  A
O825        C832   1.276       .  A
H826        C839   1.081       .  S
C827        H852   1.081       .  S
C827        O841   1.235       .  S
C827        O842   1.268       .  A
O828        C851   1.268       .  A
O829       Mg843   2.160       .  S
O830       Mg860   2.307       .  S
C831        O844   1.271       .  A
C831        O836   1.277       .  A
C832        O859   1.273       .  A
Mg833       O840   2.151       .  S
Mg833       O841   2.161       .  S
Mg833       O834   2.279       .  S
Mg833       O835   2.288       .  S
Mg833       O862   2.253       .  S
O835        C839   1.268       .  A
O836       Mg843   2.311       .  S
O837        C856   1.272       .  A
O838        C858   1.280       .  A
O838       Mg854   2.339       .  S
O840       Mg854   2.167       .  S
O840        C851   1.234       .  S
O841       Mg860   2.137       .  S
O842       Mg854   2.290       .  S
Mg843       O859   2.270       .  S
O844       Mg860   2.249       .  S
H845        C850   1.081       .  S
O846       Mg854   2.155       .  S
O846        C849   1.235       .  S
H847        C849   1.081       .  S
H848        C851   1.081       .  S
O853       Mg860   2.296       .  S
C856        O861   1.276       .  A
O857        C858   1.275       .  A
C863        C864   1.360   1_556  D
C863       C1169   1.491       .  S
C863       C1179   1.487       .  S
C864        C869   1.492       .  S
C864        C876   1.491       .  S
C865        C866   1.400       .  A
C865        C870   1.396       .  A
C865        H872   1.084       .  S
C866        C867   1.406       .  A
C867        C868   1.397       .  A
C867       Br874   1.918       .  S
C868        C869   1.406       .  A
C868        H873   1.081       .  S
C869        C870   1.410       .  A
C870       Br871   1.913       .  S
C875        C876   1.404       .  A
C875        C880   1.391       .  A
C875        H882   1.082       .  S
C876        C877   1.410       .  A
C877        C878   1.405       .  A
C877       Br884   1.916       .  S
C878        C879   1.407       .  A
C878        H883   1.083       .  S
C879        C880   1.409       .  A
C880       Br881   1.923       .  S
C885        C886   1.406   1_455  A
C885        C890   1.405       .  A
C885        H892   1.083   1_455  S
C886        C887   1.412   1_655  A
C887        C888   1.389       .  A
C887       Br894   1.921       .  S
C888        C889   1.403       .  A
C888        H893   1.084       .  S
C889        C890   1.413       .  A
C890       Br891   1.918       .  S
C895        C896   1.403       .  A
C895        C900   1.398   1_655  A
C895        H902   1.081       .  S
C896        C897   1.411   1_655  A
C897        C898   1.397       .  A
C897       Br904   1.917       .  S
C898        C899   1.400       .  A
C898        H903   1.084       .  S
C899        C900   1.406       .  A
C900       Br901   1.917       .  S
C905        C906   1.405       .  A
C905        C910   1.402       .  A
C905        H912   1.084       .  S
C906        C907   1.407       .  A
C907        C908   1.392       .  A
C907       Br914   1.914       .  S
C908        C909   1.402       .  A
C908        H913   1.084       .  S
C909        C910   1.410       .  A
C910       Br911   1.917       .  S
C915        C916   1.398       .  A
C915        C920   1.398       .  A
C915        H922   1.084       .  S
C916        C917   1.403       .  A
C917        C918   1.396       .  A
C917       Br924   1.919       .  S
C918        C919   1.408       .  A
C918        H923   1.082       .  S
C919        C920   1.414       .  A
C920       Br921   1.909       .  S
C925        C926   1.407       .  A
C925        C930   1.405       .  A
C925        H932   1.083       .  S
C926        C927   1.410       .  A
C927        C928   1.390       .  A
C927       Br934   1.924       .  S
C928        C929   1.403       .  A
C928        H933   1.082       .  S
C929        C930   1.411       .  A
C930       Br931   1.917       .  S
C935        C936   1.407       .  A
C935        C940   1.402       .  A
C935        H942   1.083       .  S
C936        C937   1.413       .  A
C937        C938   1.397       .  A
C937       Br944   1.912       .  S
C938        C939   1.399       .  A
C938        H943   1.084       .  S
C939        C940   1.409       .  A
C940       Br941   1.918       .  S
C945        C946   1.407   1_545  A
C945        C950   1.399       .  A
C945        H952   1.081       .  S
C946        C947   1.414   1_565  A
C947        C948   1.402       .  A
C947       Br954   1.915   1_545  S
C948        C949   1.402       .  A
C948        H953   1.084       .  S
C949        C950   1.406       .  A
C950       Br951   1.919       .  S
C955        C956   1.402       .  A
C955        C960   1.396       .  A
C955        H962   1.082       .  S
C956        C957   1.410       .  A
C957        C958   1.401       .  A
C957       Br964   1.914   1_545  S
C958        C959   1.403       .  A
C958        H963   1.084       .  S
C959        C960   1.411       .  A
C960       Br961   1.921       .  S
C965        C966   1.405       .  A
C965        C970   1.399       .  A
C965        H972   1.081       .  S
C966        C967   1.409       .  A
C967        C968   1.395       .  A
C967       Br974   1.912       .  S
C968        C969   1.401       .  A
C968        H973   1.084       .  S
C969        C970   1.406       .  A
C970       Br971   1.917       .  S
C975        C976   1.408       .  A
C975        C980   1.397       .  A
C975        H982   1.081       .  S
C976        C977   1.418       .  A
C977        C978   1.394       .  A
C977       Br984   1.911       .  S
C978        C979   1.396       .  A
C978        H983   1.085       .  S
C979        C980   1.404       .  A
C980       Br981   1.919       .  S
C985        C986   1.404       .  A
C985        C990   1.397       .  A
C985        H992   1.079       .  S
C986        C987   1.412       .  A
C987        C988   1.406       .  A
C987       Br994   1.916       .  S
C988        C989   1.405       .  A
C988        H993   1.084       .  S
C989        C990   1.408       .  A
C990       Br991   1.920       .  S
C995        C996   1.403       .  A
C995       C1000   1.396       .  A
C995       H1002   1.084       .  S
C996        C997   1.408       .  A
C997        C998   1.398       .  A
C997      Br1004   1.919       .  S
C998        C999   1.404       .  A
C998       H1003   1.081       .  S
C999       C1000   1.411       .  A
C1000     Br1001   1.915       .  S
C1005      C1006   1.407       .  A
C1005      C1010   1.405       .  A
C1005      H1012   1.083       .  S
C1006      C1007   1.412       .  A
C1007      C1008   1.391       .  A
C1007     Br1014   1.924       .  S
C1008      C1009   1.399   1_455  A
C1008      H1013   1.079       .  S
C1009      C1010   1.411   1_655  A
C1010     Br1011   1.916   1_455  S
C1015      C1016   1.402       .  A
C1015      C1020   1.399       .  A
C1015      H1022   1.084       .  S
C1016      C1017   1.402       .  A
C1017      C1018   1.397       .  A
C1017     Br1024   1.917       .  S
C1018      C1019   1.406   1_455  A
C1018      H1023   1.080       .  S
C1019      C1020   1.411   1_655  A
C1020     Br1021   1.916   1_455  S
C1025      C1026   1.404       .  A
C1025      C1030   1.398       .  A
C1025      H1032   1.084       .  S
C1026      C1027   1.411       .  A
C1027      C1028   1.402       .  A
C1027     Br1034   1.918       .  S
C1028      C1029   1.403       .  A
C1028      H1033   1.079       .  S
C1029      C1030   1.411       .  A
C1030     Br1031   1.914       .  S
C1035      C1036   1.402       .  A
C1035      C1040   1.395       .  A
C1035      H1042   1.080       .  S
C1036      C1037   1.414       .  A
C1037      C1038   1.401       .  A
C1037     Br1044   1.915       .  S
C1038      C1039   1.401       .  A
C1038      H1043   1.085       .  S
C1039      C1040   1.405       .  A
C1040     Br1041   1.918       .  S
C1045      C1046   1.405       .  A
C1045      C1050   1.402       .  A
C1045      H1052   1.079       .  S
C1046      C1047   1.413       .  A
C1047      C1048   1.393       .  A
C1047     Br1054   1.917       .  S
C1048      C1049   1.401       .  A
C1048      H1053   1.084       .  S
C1049      C1050   1.410       .  A
C1050     Br1051   1.919       .  S
C1055      C1056   1.399       .  A
C1055      C1060   1.398       .  A
C1055      H1062   1.084       .  S
C1056      C1057   1.408       .  A
C1057      C1058   1.398       .  A
C1057     Br1064   1.919       .  S
C1058      C1059   1.402       .  A
C1058      H1063   1.080       .  S
C1059      C1060   1.413       .  A
C1060     Br1061   1.916       .  S
C1065      C1066   1.406       .  A
C1065      C1070   1.402       .  A
C1065      H1072   1.080       .  S
C1066      C1067   1.412       .  A
C1067      C1068   1.395       .  A
C1067     Br1074   1.909       .  S
C1068      C1069   1.401       .  A
C1068      H1073   1.084       .  S
C1069      C1070   1.409       .  A
C1070     Br1071   1.919       .  S
C1075      C1076   1.401       .  A
C1075      C1080   1.402       .  A
C1075      H1082   1.084       .  S
C1076      C1077   1.409       .  A
C1077      C1078   1.394       .  A
C1077     Br1084   1.921       .  S
C1078      C1079   1.401       .  A
C1078      H1083   1.081       .  S
C1079      C1080   1.411       .  A
C1080     Br1081   1.913       .  S
C1085      C1086   1.401       .  A
C1085      C1090   1.399       .  A
C1085      H1092   1.084       .  S
C1086      C1087   1.407       .  A
C1087      C1088   1.397       .  A
C1087     Br1094   1.919       .  S
C1088      C1089   1.405   1_455  A
C1088      H1093   1.081   1_455  S
C1089      C1090   1.411   1_655  A
C1090     Br1091   1.911       .  S
C1095      C1096   1.403       .  A
C1095      C1100   1.402       .  A
C1095      H1102   1.084       .  S
C1096      C1097   1.408       .  A
C1097      C1098   1.394       .  A
C1097     Br1104   1.922       .  S
C1098      C1099   1.405   1_455  A
C1098      H1103   1.081       .  S
C1099      C1100   1.412   1_655  A
C1100     Br1101   1.913   1_455  S
C1105      C1106   1.396       .  A
C1105      C1110   1.396       .  A
C1105      H1112   1.084       .  S
C1106      C1107   1.408       .  A
C1107      C1108   1.402       .  A
C1107     Br1114   1.918       .  S
C1108      C1109   1.405       .  A
C1108      H1113   1.082       .  S
C1109      C1110   1.414       .  A
C1110     Br1111   1.915       .  S
C1115      C1116   1.405       .  A
C1115      C1120   1.389       .  A
C1115      H1122   1.084       .  S
C1116      C1117   1.417       .  A
C1117      C1118   1.405       .  A
C1117     Br1124   1.919       .  S
C1118      C1119   1.404       .  A
C1118      H1123   1.083       .  S
C1119      C1120   1.411       .  A
C1120     Br1121   1.920       .  S
C1125      C1126   1.404       .  A
C1125      C1130   1.400       .  A
C1125      H1132   1.081   1_545  S
C1126      C1127   1.415       .  A
C1127      C1128   1.397       .  A
C1127     Br1134   1.913       .  S
C1128      C1129   1.396       .  A
C1128      H1133   1.084       .  S
C1129      C1130   1.407       .  A
C1130     Br1131   1.918       .  S
C1135      C1136   1.404       .  A
C1135      C1140   1.403       .  A
C1135      H1142   1.081       .  S
C1136      C1137   1.410       .  A
C1137      C1138   1.389       .  A
C1137     Br1144   1.914       .  S
C1138      C1139   1.404       .  A
C1138      H1143   1.084       .  S
C1139      C1140   1.416       .  A
C1140     Br1141   1.920       .  S
C1145      C1146   1.402       .  A
C1145      C1150   1.392       .  A
C1145      H1152   1.084       .  S
C1146      C1147   1.412       .  A
C1147      C1148   1.402       .  A
C1147     Br1154   1.919       .  S
C1148      C1149   1.404       .  A
C1148      H1153   1.080       .  S
C1149      C1150   1.412       .  A
C1150     Br1151   1.911       .  S
C1155      C1156   1.403       .  A
C1155      C1160   1.399       .  A
C1155      H1162   1.080       .  S
C1156      C1157   1.413       .  A
C1157      C1158   1.400       .  A
C1157     Br1164   1.912       .  S
C1158      C1159   1.399       .  A
C1158      H1163   1.084       .  S
C1159      C1160   1.408       .  A
C1160     Br1161   1.919       .  S
C1165      C1166   1.401       .  A
C1165      C1170   1.401       .  A
C1165      H1172   1.084       .  S
C1166      C1167   1.404       .  A
C1167      C1168   1.398       .  A
C1167     Br1174   1.919       .  S
C1168      C1169   1.406       .  A
C1168      H1173   1.079       .  S
C1169      C1170   1.413       .  A
C1170     Br1171   1.915       .  S
C1175      C1176   1.405       .  A
C1175      C1180   1.400       .  A
C1175      H1182   1.083       .  S
C1176      C1177   1.409       .  A
C1177      C1178   1.392       .  A
C1177     Br1184   1.921       .  S
C1178      C1179   1.401       .  A
C1178      H1183   1.080       .  S
C1179      C1180   1.409       .  A
C1180     Br1181   1.915       .  S
C1185      C1186   1.404       .  A
C1185      C1190   1.402       .  A
C1185      H1192   1.083       .  S
C1186      C1187   1.404       .  A
C1187      C1188   1.398       .  A
C1187     Br1194   1.918       .  S
C1188      C1189   1.405       .  A
C1188      H1193   1.079       .  S
C1189      C1190   1.413       .  A
C1190     Br1191   1.917       .  S
C1195      C1196   1.403       .  A
C1195      C1200   1.401       .  A
C1195      H1202   1.084       .  S
C1196      C1197   1.408       .  A
C1197      C1198   1.393       .  A
C1197     Br1204   1.921       .  S
C1198      C1199   1.402       .  A
C1198      H1203   1.079       .  S
C1199      C1200   1.410       .  A
C1200     Br1201   1.914       .  S
C1205      C1206   1.406       .  A
C1205      C1210   1.403       .  A
C1205      H1212   1.083       .  S
C1206      C1207   1.409       .  A
C1207      C1208   1.385       .  A
C1207     Br1214   1.925       .  S
C1208      C1209   1.398       .  A
C1208      H1213   1.080       .  S
C1209      C1210   1.411       .  A
C1210     Br1211   1.913       .  S
C1215      C1216   1.400       .  A
C1215      C1220   1.400       .  A
C1215      H1222   1.084       .  S
C1216      C1217   1.409       .  A
C1217      C1218   1.399       .  A
C1217     Br1224   1.919       .  S
C1218      C1219   1.405       .  A
C1218      H1223   1.081       .  S
C1219      C1220   1.412       .  A
C1220     Br1221   1.911       .  S
C1225      C1226   1.403       .  A
C1225      C1230   1.396   1_655  A
C1225      H1232   1.079       .  S
C1226      C1227   1.410   1_655  A
C1227      C1228   1.398       .  A
C1227     Br1234   1.916       .  S
C1228      C1229   1.401       .  A
C1228      H1233   1.084       .  S
C1229      C1230   1.406       .  A
C1230     Br1231   1.918       .  S
C1235      C1236   1.404   1_455  A
C1235      C1240   1.403       .  A
C1235      H1242   1.082   1_455  S
C1236      C1237   1.409   1_655  A
C1237      C1238   1.395       .  A
C1237     Br1244   1.917   1_455  S
C1238      C1239   1.404       .  A
C1238      H1243   1.084       .  S
C1239      C1240   1.411       .  A
C1240     Br1241   1.918       .  S
C1245      C1246   1.405   1_545  A
C1245      C1250   1.402       .  A
C1245      H1252   1.082       .  S
C1246      C1247   1.408   1_565  A
C1247      C1248   1.392       .  A
C1247     Br1254   1.911   1_545  S
C1248      C1249   1.401       .  A
C1248      H1253   1.084       .  S
C1249      C1250   1.412       .  A
C1250     Br1251   1.918       .  S
C1255      C1256   1.409       .  A
C1255      C1260   1.397       .  A
C1255      H1262   1.080       .  S
C1256      C1257   1.416       .  A
C1257      C1258   1.401       .  A
C1257     Br1264   1.907   1_545  S
C1258      C1259   1.399       .  A
C1258      H1263   1.084       .  S
C1259      C1260   1.402       .  A
C1260     Br1261   1.918       .  S
C1265      C1266   1.407       .  A
C1265      C1270   1.402       .  A
C1265      H1272   1.084       .  S
C1266      C1267   1.418       .  A
C1267      C1268   1.399       .  A
C1267     Br1274   1.910       .  S
C1268      C1269   1.399       .  A
C1268      H1273   1.084       .  S
C1269      C1270   1.407       .  A
C1270     Br1271   1.917       .  S
C1275      C1276   1.417       .  A
C1275      C1280   1.378       .  A
C1275      H1282   1.072       .  S
C1276      C1277   1.431       .  A
C1277      C1278   1.417       .  A
C1277     Br1284   1.913       .  S
C1278      C1279   1.405       .  A
C1278      H1283   1.083       .  S
C1279      C1280   1.396       .  A
C1280     Br1281   1.924       .  S
C1285      C1286   1.401       .  A
C1285      C1290   1.387       .  A
C1285      H1292   1.084       .  S
C1286      C1287   1.415       .  A
C1287      C1288   1.405       .  A
C1287     Br1294   1.919       .  S
C1288      C1289   1.405       .  A
C1288      H1293   1.081       .  S
C1289      C1290   1.413       .  A
C1290     Br1291   1.918       .  S
C1295      C1296   1.398       .  A
C1295      C1300   1.398       .  A
C1295      H1302   1.084       .  S
C1296      C1297   1.407       .  A
C1297      C1298   1.398       .  A
C1297     Br1304   1.918       .  S
C1298      C1299   1.402       .  A
C1298      H1303   1.080       .  S
C1299      C1300   1.412       .  A
C1300     Br1301   1.916       .  S
C1305      C1306   1.402       .  A
C1305      C1310   1.397       .  A
C1305      H1312   1.081       .  S
C1306      C1307   1.409       .  A
C1307      C1308   1.397       .  A
C1307     Br1314   1.916       .  S
C1308      C1309   1.401       .  A
C1308      H1313   1.084       .  S
C1309      C1310   1.407       .  A
C1310     Br1311   1.918       .  S
C1315      C1316   1.402       .  A
C1315      C1320   1.393       .  A
C1315      H1322   1.084       .  S
C1316      C1317   1.409       .  A
C1317      C1318   1.402       .  A
C1317     Br1324   1.917       .  S
C1318      C1319   1.404       .  A
C1318      H1323   1.082       .  S
C1319      C1320   1.411       .  A
C1320     Br1321   1.917       .  S
C1325      C1326   1.395       .  A
C1325      C1330   1.393       .  A
C1325      H1332   1.084       .  S
C1326      C1327   1.409       .  A
C1327      C1328   1.404       .  A
C1327     Br1334   1.916       .  S
C1328      C1329   1.405       .  A
C1328      H1333   1.083       .  S
C1329      C1330   1.417       .  A
C1330     Br1331   1.920       .  S
C1335      C1336   1.402       .  A
C1335      C1340   1.391       .  A
C1335      H1342   1.084       .  S
C1336      C1337   1.412       .  A
C1337      C1338   1.408       .  A
C1337     Br1344   1.916       .  S
C1338      C1339   1.409       .  A
C1338      H1343   1.083       .  S
C1339      C1340   1.417       .  A
C1340     Br1341   1.921       .  S
C1345      C1346   1.405       .  A
C1345      C1350   1.397       .  A
C1345      H1352   1.082       .  S
C1346      C1347   1.412       .  A
C1347      C1348   1.397       .  A
C1347     Br1354   1.911       .  S
C1348      C1349   1.397       .  A
C1348      H1353   1.084       .  S
C1349      C1350   1.407       .  A
C1350     Br1351   1.919       .  S
C1355      C1356   1.405       .  A
C1355      C1360   1.399       .  A
C1355      H1362   1.083       .  S
C1356      C1357   1.409       .  A
C1357      C1358   1.402       .  A
C1357     Br1364   1.909       .  S
C1358      C1359   1.407       .  A
C1358      H1363   1.083       .  S
C1359      C1360   1.414       .  A
C1360     Br1361   1.922       .  S
C1365      C1366   1.406       .  A
C1365      C1370   1.400       .  A
C1365      H1372   1.082       .  S
C1366      C1367   1.412       .  A
C1367      C1368   1.397       .  A
C1367     Br1374   1.911       .  S
C1368      C1369   1.398       .  A
C1368      H1373   1.084       .  S
C1369      C1370   1.408       .  A
C1370     Br1371   1.919       .  S
C1375      C1376   1.405       .  A
C1375      C1380   1.397       .  A
C1375      H1382   1.082       .  S
C1376      C1377   1.409       .  A
C1377      C1378   1.401       .  A
C1377     Br1384   1.909       .  S
C1378      C1379   1.406       .  A
C1378      H1383   1.083       .  S
C1379      C1380   1.412       .  A
C1380     Br1381   1.922       .  S
C1385      C1386   1.404       .  A
C1385      C1390   1.403       .  A
C1385      H1392   1.082       .  S
C1386      C1387   1.409       .  A
C1387      C1388   1.394       .  A
C1387     Br1394   1.918       .  S
C1388      C1389   1.404       .  A
C1388      H1393   1.084       .  S
C1389      C1390   1.411       .  A
C1390     Br1391   1.917       .  S
C1395      C1396   1.403       .  A
C1395      C1400   1.397       .  A
C1395      H1402   1.080       .  S
C1396      C1397   1.410       .  A
C1397      C1398   1.398       .  A
C1397     Br1404   1.916       .  S
C1398      C1399   1.400       .  A
C1398      H1403   1.084       .  S
C1399      C1400   1.406       .  A
C1400     Br1401   1.918       .  S
C1405      C1406   1.404       .  A
C1405      C1410   1.404       .  A
C1405      H1412   1.082       .  S
C1406      C1407   1.410       .  A
C1407      C1408   1.395       .  A
C1407     Br1414   1.917       .  S
C1408      C1409   1.404       .  A
C1408      H1413   1.084       .  S
C1409      C1410   1.411       .  A
C1410     Br1411   1.918       .  S
C1415      C1416   1.402       .  A
C1415      C1420   1.397       .  A
C1415      H1422   1.081       .  S
C1416      C1417   1.409       .  A
C1417      C1418   1.398       .  A
C1417     Br1424   1.916       .  S
C1418      C1419   1.401       .  A
C1418      H1423   1.084       .  S
C1419      C1420   1.407       .  A
C1420     Br1421   1.918       .  S
C1425      C1426   1.405       .  A
C1425      C1430   1.399       .  A
C1425      H1432   1.083       .  S
C1426      C1427   1.413       .  A
C1427      C1428   1.393       .  A
C1427     Br1434   1.917       .  S
C1428      C1429   1.397       .  A
C1428      H1433   1.084       .  S
C1429      C1430   1.405       .  A
C1430     Br1431   1.917       .  S
C1435      C1436   1.406       .  A
C1435      C1440   1.405       .  A
C1435      H1442   1.084       .  S
C1436      C1437   1.413       .  A
C1437      C1438   1.392       .  A
C1437     Br1444   1.919       .  S
C1438      C1439   1.402       .  A
C1438      H1443   1.084       .  S
C1439      C1440   1.411       .  A
C1440     Br1441   1.917       .  S
C1445      C1446   1.403       .  A
C1445      C1450   1.396       .  A
C1445      H1452   1.081       .  S
C1446      C1447   1.410       .  A
C1447      C1448   1.395       .  A
C1447     Br1454   1.912       .  S
C1448      C1449   1.401       .  A
C1448      H1453   1.084       .  S
C1449      C1450   1.408       .  A
C1450     Br1451   1.920       .  S
C1455      C1456   1.402       .  A
C1455      C1460   1.396       .  A
C1455      H1462   1.081       .  S
C1456      C1457   1.411       .  A
C1457      C1458   1.403       .  A
C1457     Br1464   1.914       .  S
C1458      C1459   1.403       .  A
C1458      H1463   1.084       .  S
C1459      C1460   1.411       .  A
C1460     Br1461   1.921       .  S
C1465      C1466   1.404       .  A
C1465      C1470   1.401       .  A
C1465      H1472   1.083       .  S
C1466      C1467   1.410       .  A
C1467      C1468   1.388       .  A
C1467     Br1474   1.916       .  S
C1468      C1469   1.400       .  A
C1468      H1473   1.084       .  S
C1469      C1470   1.414       .  A
C1470     Br1471   1.919       .  S
C1475      C1476   1.407       .  A
C1475      C1480   1.394       .  A
C1475      H1482   1.082       .  S
C1476      C1477   1.412       .  A
C1477      C1478   1.406       .  A
C1477     Br1484   1.917       .  S
C1478      C1479   1.406       .  A
C1478      H1483   1.083       .  S
C1479      C1480   1.402       .  A
C1480     Br1481   1.918       .  S
C1485      C1486   1.411       .  A
C1485      C1490   1.414       .  A
C1485      H1492   1.081       .  S
C1486      C1487   1.402       .  A
C1487      C1488   1.374       .  A
C1487     Br1494   1.917       .  S
C1488      C1489   1.409       .  A
C1488      H1493   1.079       .  S
C1489      C1490   1.425       .  A
C1490     Br1491   1.917       .  S
C1495      C1496   1.409       .  A
C1495      C1500   1.397       .  A
C1495      H1502   1.084       .  S
C1496      C1497   1.421       .  A
C1497      C1498   1.402       .  A
C1497     Br1504   1.915       .  S
C1498      C1499   1.400       .  A
C1498      H1503   1.084       .  S
C1499      C1500   1.401       .  A
C1500     Br1501   1.916       .  S
C1505      C1506   1.399       .  A
C1505      C1510   1.391       .  A
C1505      H1512   1.084       .  S
C1506      C1507   1.412       .  A
C1507      C1508   1.408       .  A
C1507     Br1514   1.917       .  S
C1508      C1509   1.408       .  A
C1508      H1513   1.084       .  S
C1509      C1510   1.413       .  A
C1510     Br1511   1.912       .  S
C1515      C1516   1.408       .  A
C1515      C1520   1.394       .  A
C1515      H1522   1.083       .  S
C1516      C1517   1.418       .  A
C1517      C1518   1.397       .  A
C1517     Br1524   1.914       .  S
C1518      C1519   1.398       .  A
C1518      H1523   1.084       .  S
C1519      C1520   1.402       .  A
C1520     Br1521   1.919       .  S
C1525      C1526   1.397       .  A
C1525      C1530   1.387       .  A
C1525      H1532   1.081       .  S
C1526      C1527   1.410       .  A
C1527      C1528   1.405       .  A
C1527     Br1534   1.917       .  S
C1528      C1529   1.407       .  A
C1528      H1533   1.083       .  S
C1529      C1530   1.411       .  A
C1530     Br1531   1.925       .  S
C1535      C1536   1.407       .  A
C1535      C1540   1.400       .  A
C1535      H1542   1.081       .  S
C1536      C1537   1.412       .  A
C1537      C1538   1.401       .  A
C1537     Br1544   1.912       .  S
C1538      C1539   1.401       .  A
C1538      H1543   1.084       .  S
C1539      C1540   1.404       .  A
C1540     Br1541   1.918       .  S
C1545      C1546   1.406       .  A
C1545      C1550   1.406       .  A
C1545      H1552   1.084       .  S
C1546      C1547   1.409       .  A
C1547      C1548   1.388       .  A
C1547     Br1554   1.917       .  S
C1548      C1549   1.401       .  A
C1548      H1553   1.084       .  S
C1549      C1550   1.412       .  A
C1550     Br1551   1.917       .  S
C1555      C1556   1.412       .  A
C1555      C1560   1.399       .  A
C1555      H1562   1.082       .  S
C1556      C1557   1.420       .  A
C1557      C1558   1.398       .  A
C1557     Br1564   1.907       .  S
C1558      C1559   1.396       .  A
C1558      H1563   1.084       .  S
C1559      C1560   1.403       .  A
C1560     Br1561   1.919       .  S
C1565      C1566   1.405       .  A
C1565      C1570   1.404       .  A
C1565      H1572   1.083       .  S
C1566      C1567   1.407       .  A
C1567      C1568   1.384       .  A
C1567     Br1574   1.919       .  S
C1568      C1569   1.403       .  A
C1568      H1573   1.084       .  S
C1569      C1570   1.415       .  A
C1570     Br1571   1.919       .  S
C1575      C1576   1.411       .  A
C1575      C1580   1.399       .  A
C1575      H1582   1.082       .  S
C1576      C1577   1.416       .  A
C1577      C1578   1.404       .  A
C1577     Br1584   1.912       .  S
C1578      C1579   1.402       .  A
C1578      H1583   1.084       .  S
C1579      C1580   1.401       .  A
C1580     Br1581   1.917       .  S
C1585      C1586   1.402       .  A
C1585      C1590   1.397       .  A
C1585      H1592   1.079       .  S
C1586      C1587   1.412       .  A
C1587      C1588   1.399       .  A
C1587     Br1594   1.915       .  S
C1588      C1589   1.399       .  A
C1588      H1593   1.084       .  S
C1589      C1590   1.408       .  A
C1590     Br1591   1.919       .  S
C1595      C1596   1.404       .  A
C1595      C1600   1.400       .  A
C1595      H1602   1.080       .  S
C1596      C1597   1.412       .  A
C1597      C1598   1.391       .  A
C1597     Br1604   1.915       .  S
C1598      C1599   1.400       .  A
C1598      H1603   1.084       .  S
C1599      C1600   1.410       .  A
C1600     Br1601   1.919       .  S
C1605      C1606   1.401       .  A
C1605      C1610   1.394       .  A
C1605      H1612   1.075       .  S
C1606      C1607   1.412       .  A
C1607      C1608   1.401       .  A
C1607     Br1614   1.915       .  S
C1608      C1609   1.402       .  A
C1608      H1613   1.083       .  S
C1609      C1610   1.406       .  A
C1610     Br1611   1.920       .  S
C1615      C1616   1.401       .  A
C1615      C1620   1.393       .  A
C1615      H1622   1.084       .  S
C1616      C1617   1.407       .  A
C1617      C1618   1.399       .  A
C1617     Br1624   1.918       .  S
C1618      C1619   1.404       .  A
C1618      H1623   1.079       .  S
C1619      C1620   1.410       .  A
C1620     Br1621   1.914       .  S
C1625      C1626   1.404       .  A
C1625      C1630   1.394       .  A
C1625      H1632   1.083       .  S
C1626      C1627   1.409       .  A
C1627      C1628   1.406       .  A
C1627     Br1634   1.916       .  S
C1628      C1629   1.408       .  A
C1628      H1633   1.083       .  S
C1629      C1630   1.411       .  A
C1630     Br1631   1.923       .  S
C1635      C1636   1.406       .  A
C1635      C1640   1.402       .  A
C1635      H1642   1.083       .  S
C1636      C1637   1.413       .  A
C1637      C1638   1.394       .  A
C1637     Br1644   1.914       .  S
C1638      C1639   1.398       .  A
C1638      H1643   1.084       .  S
C1639      C1640   1.409       .  A
C1640     Br1641   1.917       .  S
C1645      C1646   1.396       .  A
C1645      C1650   1.385       .  A
C1645      H1652   1.081       .  S
C1646      C1647   1.413       .  A
C1647      C1648   1.408       .  A
C1647     Br1654   1.914       .  S
C1648      C1649   1.416       .  A
C1648      H1653   1.079       .  S
C1649      C1650   1.429       .  A
C1650     Br1651   1.931       .  S
C1655      C1656   1.399       .  A
C1655      C1660   1.399       .  A
C1655      H1662   1.084       .  S
C1656      C1657   1.410       .  A
C1657      C1658   1.406       .  A
C1657     Br1664   1.917       .  S
C1658      C1659   1.409       .  A
C1658      H1663   1.083       .  S
C1659      C1660   1.412       .  A
C1660     Br1661   1.915       .  S
C1665      C1666   1.406       .  A
C1665      C1670   1.404       .  A
C1665      H1672   1.081       .  S
C1666      C1667   1.411       .  A
C1667      C1668   1.396       .  A
C1667     Br1674   1.913       .  S
C1668      C1669   1.401       .  A
C1668      H1673   1.084       .  S
C1669      C1670   1.409       .  A
C1670     Br1671   1.917       .  S
C1675      C1676   1.402       .  A
C1675      C1680   1.393       .  A
C1675      H1682   1.079       .  S
C1676      C1677   1.412       .  A
C1677      C1678   1.402       .  A
C1677     Br1684   1.914       .  S
C1678      C1679   1.403       .  A
C1678      H1683   1.083       .  S
C1679      C1680   1.408       .  A
C1680     Br1681   1.920       .  S
C1685      C1686   1.404       .  A
C1685      C1690   1.395       .  A
C1685      H1692   1.078       .  S
C1686      C1687   1.413       .  A
C1687      C1688   1.400       .  A
C1687     Br1694   1.916       .  S
C1688      C1689   1.400       .  A
C1688      H1693   1.084       .  S
C1689      C1690   1.406       .  A
C1690     Br1691   1.919       .  S
C1695      C1696   1.405       .  A
C1695      C1700   1.406       .  A
C1695      H1702   1.083       .  S
C1696      C1697   1.413       .  A
C1697      C1698   1.394       .  A
C1697     Br1704   1.916       .  S
C1698      C1699   1.402       .  A
C1698      H1703   1.084       .  S
C1699      C1700   1.412       .  A
C1700     Br1701   1.917       .  S
C1705      C1706   1.401       .  A
C1705      C1710   1.393       .  A
C1705      H1712   1.081       .  S
C1706      C1707   1.410       .  A
C1707      C1708   1.402       .  A
C1707     Br1714   1.914       .  S
C1708      C1709   1.405       .  A
C1708      H1713   1.083       .  S
C1709      C1710   1.411       .  A
C1710     Br1711   1.922       .  S
C1715      C1716   1.405       .  A
C1715      C1720   1.400       .  A
C1715      H1722   1.080       .  S
C1716      C1717   1.412       .  A
C1717      C1718   1.398       .  A
C1717     Br1724   1.911       .  S
C1718      C1719   1.400       .  A
C1718      H1723   1.084       .  S
C1719      C1720   1.405       .  A
C1720     Br1721   1.918       .  S
C1725      C1726   1.401       .  A
C1725      C1730   1.392       .  A
C1725      H1732   1.084       .  S
C1726      C1727   1.412       .  A
C1727      C1728   1.408       .  A
C1727     Br1734   1.917       .  S
C1728      C1729   1.406       .  A
C1728      H1733   1.083       .  S
C1729      C1730   1.413       .  A
C1730     Br1731   1.919       .  S
C1735      C1736   1.405       .  A
C1735      C1740   1.396       .  A
C1735      H1742   1.080       .  S
C1736      C1737   1.413       .  A
C1737      C1738   1.396       .  A
C1737     Br1744   1.917       .  S
C1738      C1739   1.398       .  A
C1738      H1743   1.084       .  S
C1739      C1740   1.405       .  A
C1740     Br1741   1.918       .  S
C1745      C1746   1.396       .  A
C1745      C1750   1.397       .  A
C1745      H1752   1.084       .  S
C1746      C1747   1.403       .  A
C1747      C1748   1.397       .  A
C1747     Br1754   1.919       .  S
C1748      C1749   1.410       .  A
C1748      H1753   1.082       .  S
C1749      C1750   1.418       .  A
C1750     Br1751   1.908       .  S
C1755      C1756   1.407       .  A
C1755      C1760   1.406       .  A
C1755      H1762   1.084       .  S
C1756      C1757   1.411       .  A
C1757      C1758   1.390       .  A
C1757     Br1764   1.915       .  S
C1758      C1759   1.401       .  A
C1758      H1763   1.084       .  S
C1759      C1760   1.412       .  A
C1760     Br1761   1.917       .  S
C1765      C1766   1.410       .  A
C1765      C1770   1.398       .  A
C1765      H1772   1.082       .  S
C1766      C1767   1.415       .  A
C1767      C1768   1.404       .  A
C1767     Br1774   1.913       .  S
C1768      C1769   1.402       .  A
C1768      H1773   1.084       .  S
C1769      C1770   1.402       .  A
C1770     Br1771   1.917       .  S
C1775      C1776   1.406       .  A
C1775      C1780   1.405       .  A
C1775      H1782   1.083       .  S
C1776      C1777   1.406       .  A
C1777      C1778   1.386       .  A
C1777     Br1784   1.919       .  S
C1778      C1779   1.404       .  A
C1778      H1783   1.084       .  S
C1779      C1780   1.415       .  A
C1780     Br1781   1.919       .  S
C1785      C1786   1.396       .  A
C1785      C1790   1.396       .  A
C1785      H1792   1.085       .  S
C1786      C1787   1.403       .  A
C1787      C1788   1.399       .  A
C1787     Br1794   1.918       .  S
C1788      C1789   1.411       .  A
C1788      H1793   1.081       .  S
C1789      C1790   1.418       .  A
C1790     Br1791   1.904       .  S
C1795      C1796   1.404       .  A
C1795      C1800   1.393       .  A
C1795      H1802   1.084       .  S
C1796      C1797   1.409       .  A
C1797      C1798   1.401       .  A
C1797     Br1804   1.917       .  S
C1798      C1799   1.405       .  A
C1798      H1803   1.082       .  S
C1799      C1800   1.406       .  A
C1800     Br1801   1.915       .  S
C1805      C1806   1.399       .  A
C1805      C1810   1.399       .  A
C1805      H1812   1.084       .  S
C1806      C1807   1.408       .  A
C1807      C1808   1.401       .  A
C1807     Br1814   1.918       .  S
C1808      C1809   1.402       .  A
C1808      H1813   1.081       .  S
C1809      C1810   1.412       .  A
C1810     Br1811   1.916       .  S
C1815      C1816   1.402       .  A
C1815      C1820   1.387       .  A
C1815      H1822   1.084       .  S
C1816      C1817   1.414       .  A
C1817      C1818   1.403       .  A
C1817     Br1824   1.919       .  S
C1818      C1819   1.404       .  A
C1818      H1823   1.081       .  S
C1819      C1820   1.412       .  A
C1820     Br1821   1.922       .  S
