geometry optimzed in LAMMPS
_audit_creation_date              2020-11-30 
_audit_creation_method            'lammps2cif' 
_symmetry_space_group_name_H-M    'P1' 
_symmetry_Int_Tables_number       1 
_symmetry_cell_setting            triclinic 
loop_ 
_symmetry_equiv_pos_as_xyz 
  x,y,z 
_cell_length_a                    25.31689898 
_cell_length_b                    25.06573780775323 
_cell_length_c                    30.36442184140621 
_cell_angle_alpha                 78.15562129412537 
_cell_angle_beta                  77.5111062056735 
_cell_angle_gamma                 91.81402234180887 
loop_ 
_atom_site_label 
_atom_site_type_symbol 
_atom_site_fract_x 
_atom_site_fract_y 
_atom_site_fract_z 
_atom_site_charge 
N1          N  0.75282651  0.64483617  0.00861531    -0.02900
C2          C  0.77509474  0.69730186  0.99551569    -0.00300
C3          C  0.75414891  0.72611063  0.46052593    -0.23200
C4          C  0.71795518  0.69127096  0.45104891    -0.23400
C5          C  0.71837386  0.64173365  0.48061229    -0.00400
H6          H  0.76813933  0.76701205  0.44058746     0.13400
H7          H  0.69656186  0.69995920  0.42346760     0.13400
N8          N  0.32708607  0.66132791  0.04499369    -0.02900
C9          C  0.32017461  0.71565987  0.03464552    -0.00300
C10         C  0.34294706  0.74334425  0.06181598    -0.23200
C11         C  0.36412266  0.70513457  0.09060582    -0.23400
C12         C  0.35370674  0.65577555  0.07966455    -0.00400
H13         H  0.33928011  0.78574009  0.06381828     0.13400
H14         H  0.38239130  0.71193949  0.11828588     0.13400
N15         N  0.73830662  0.14825633  0.05418989    -0.02900
C16         C  0.77313061  0.10798965  0.05418315    -0.00300
C17         C  0.78154417  0.08941545  0.09810962    -0.23200
C18         C  0.74968793  0.11733462  0.12651190    -0.23400
C19         C  0.72323969  0.15235420  0.09898133    -0.00400
H20         H  0.80858865  0.05903741  0.10826685     0.13400
H21         H  0.74668328  0.11325908  0.16316892     0.13400
N22         N  0.06436180  0.85016979  0.46160173    -0.36000
N23         N  0.12454038  0.93444924  0.98412158    -0.56600
N24         N  0.03713706  0.00879775  0.97892339    -0.36000
N25         N  0.97873138  0.92479690  0.45452293    -0.56600
C26         C  0.10438217  0.82169775  0.97573013     0.27500
C27         C  0.02046760  0.81439764  0.47003417     0.27500
C28         C  0.06186289  0.02644821  0.00910570     0.27500
C29         C  0.98601896  0.02480848  0.98616654     0.27500
C30         C  0.16461888  0.90046045  0.97765004     0.36200
C31         C  0.14651669  0.97910677  0.99397021     0.36200
C32         C  0.95779953  0.88075846  0.44338940     0.36200
C33         C  0.94769806  0.96589337  0.44337793     0.36200
C34         C  0.08616215  0.76664335  0.49118612    -0.21300
C35         C  0.03292225  0.76232379  0.48839129    -0.21300
C36         C  0.02638853  0.05510890  0.03536993    -0.21300
C37         C  0.97849337  0.05399161  0.02098052    -0.21300
C38         C  0.21268057  0.92448575  0.98224641    -0.22400
C39         C  0.20117151  0.97425823  0.99262049    -0.22400
C40         C  0.91448125  0.89422039  0.42327085    -0.22400
C41         C  0.90880606  0.94873312  0.42227785    -0.22400
C42         C  0.15558564  0.84465741  0.97695278    -0.17700
C43         C  0.97006654  0.82727131  0.46015690    -0.17700
C44         C  0.94517271  0.01195961  0.46334539    -0.17700
C45         C  0.11580215  0.01817262  0.01313257    -0.17700
H46         H  0.10824626  0.73291570  0.50401994     0.15200
H47         H  0.00663151  0.72490505  0.49823817     0.15200
H48         H  0.03389651  0.07407775  0.06263886     0.15200
H49         H  0.94188240  0.07136506  0.03552292     0.15200
H50         H  0.25103182  0.90650852  0.98168682     0.13500
H51         H  0.22892220  0.00208440  0.00123880     0.13500
H52         H  0.88780048  0.86681019  0.41309673     0.13500
H53         H  0.87631800  0.97147202  0.41176862     0.13500
H54         H  0.06818204  0.89092225  0.44447535     0.26700
H55         H  0.05565068  0.98922750  0.95226654     0.26700
N56         N  0.23819001  0.15725573  0.13995737    -0.02900
C57         C  0.19344160  0.12376438  0.14288993    -0.00300
C58         C  0.16192200  0.11312421  0.18763852    -0.23200
C59         C  0.18720128  0.14138600  0.21257526    -0.23400
C60         C  0.23363293  0.16827682  0.18255464    -0.00400
H61         H  0.12423157  0.08758154  0.20078950     0.13400
H62         H  0.17356676  0.14169627  0.24883828     0.13400
N63         N  0.58144060  0.48562068  0.35149365    -0.05600
N64         N  0.58550463  0.51406861  0.38252166    -0.57700
N65         N  0.62139475  0.45608433  0.24756666    -0.05200
N66         N  0.66016326  0.47007544  0.20921463    -0.59800
N67         N  0.58645760  0.49357895  0.24875299    -0.04800
N68         N  0.60036322  0.53355322  0.21179106    -0.57600
N69         N  0.61619080  0.44769467  0.35161507    -0.04500
N70         N  0.64516159  0.45004622  0.38270587    -0.60200
C71         C  0.62506433  0.49158057  0.40189698     0.96600
C72         C  0.64636904  0.51875036  0.18719626     0.96400
N73         N  0.56271689  0.29015576  0.27957555    -0.05700
N74         N  0.56489219  0.26041374  0.24813180    -0.58300
N75         N  0.60551078  0.31943410  0.36918574    -0.03900
N76         N  0.64142507  0.30716823  0.39455976    -0.59500
N77         N  0.56428933  0.28205840  0.38242629    -0.05800
N78         N  0.57180449  0.24338283  0.41699083    -0.58500
N79         N  0.60410358  0.32741785  0.26697485    -0.03500
N80         N  0.63506926  0.32362830  0.22698609    -0.59600
Mn81       Mn  0.61381137  0.38743820  0.30846441     1.18400
C82         C  0.61013634  0.28183228  0.21535887     0.98700
C83         C  0.62015078  0.25974233  0.42442495     0.99400
N84         N  0.46119649  0.49202337  0.26733436    -0.05800
N85         N  0.46357921  0.52084236  0.22540574    -0.62100
N86         N  0.41407532  0.45922364  0.38286910    -0.04600
N87         N  0.37765973  0.47511100  0.41518204    -0.62800
N88         N  0.45672531  0.49472659  0.36867675    -0.05300
N89         N  0.45055073  0.53498967  0.39068980    -0.62400
N90         N  0.41852657  0.45642204  0.28080415    -0.04200
N91         N  0.39063897  0.46067840  0.24840032    -0.63100
Mn92       Mn  0.52158697  0.49272003  0.30888334     1.10700
C93         C  0.41972845  0.50048355  0.21383921     0.99900
C94         C  0.40126481  0.52265585  0.41965142     1.00000
N95         N  0.43548531  0.28825793  0.40642389    -0.05300
N96         N  0.42263673  0.25271488  0.44655530    -0.60700
N97         N  0.40210870  0.32972423  0.30489375    -0.04600
N98         N  0.36694509  0.32437175  0.27945666    -0.57400
N99         N  0.43546505  0.29066439  0.30390697    -0.05900
N100        N  0.42340438  0.25783945  0.27779797    -0.60200
N101        N  0.40286202  0.32823923  0.40665173    -0.04900
N102        N  0.36762776  0.32073360  0.44677863    -0.57400
Mn103      Mn  0.49926216  0.28555271  0.34364019     1.20200
Mn104      Mn  0.40741435  0.39333408  0.34465490     1.10100
Cl105      Cl  0.51048856  0.38959750  0.32673932    -0.85400
C106        C  0.38049645  0.27370185  0.47159528     0.96900
C107        C  0.38056841  0.27953185  0.26248344     0.96700
C108        C  0.32663245  0.18524117  0.19460646    -0.11700
C109        C  0.27378206  0.20151398  0.19687951     0.05300
C110        C  0.25797982  0.24539477  0.21788585    -0.07000
C111        C  0.29407114  0.27084618  0.23756137    -0.07700
C112        C  0.34616633  0.25307974  0.23760244    -0.02300
C113        C  0.36277479  0.21029495  0.21494410     0.04500
N114        N  0.41571712  0.19130650  0.21255541     0.67000
H115        H  0.33916383  0.15137749  0.17867569     0.15900
H116        H  0.28040283  0.30404476  0.25395428     0.15600
N117        N  0.20529790  0.26482781  0.21944321     0.74700
O118        O  0.42236500  0.15023897  0.24215417    -0.38700
O119        O  0.45170432  0.20667269  0.17566865    -0.38700
O120        O  0.17055854  0.25513265  0.25736809    -0.39400
O121        O  0.19828398  0.30182655  0.18663075    -0.39400
C122        C  0.27721921  0.24268636  0.08645002    -0.11700
C123        C  0.27671591  0.18570161  0.09906885     0.05300
C124        C  0.31328528  0.15822231  0.07135811    -0.07000
C125        C  0.34770468  0.18712932  0.53047153    -0.07700
C126        C  0.34653900  0.24417017  0.51684631    -0.02300
C127        C  0.31144836  0.27242775  0.04577037     0.04500
N128        N  0.30872444  0.33033143  0.03428781     0.67000
H129        H  0.24932682  0.26403258  0.10778431     0.15900
H130        H  0.37485804  0.16534878  0.50894780     0.15600
N131        N  0.31590115  0.10046660  0.08427471     0.74700
O132        O  0.27045523  0.34934666  0.01687527    -0.38700
O133        O  0.33496604  0.36036523  0.05211129    -0.38700
O134        O  0.29774251  0.06994165  0.06176502    -0.39400
O135        O  0.34762333  0.08199037  0.10953511    -0.39400
C136        C  0.15985552  0.04233029  0.11940934    -0.11700
C137        C  0.17894314  0.09802744  0.10633965     0.05300
C138        C  0.17749983  0.12730957  0.06141787    -0.07000
C139        C  0.15853244  0.10031217  0.03089262    -0.07700
C140        C  0.13846261  0.04539361  0.04488106    -0.02300
C141        C  0.13871383  0.01642639  0.08963448     0.04500
N142        N  0.11424568  0.96170382  0.10617937     0.67000
H143        H  0.15947441  0.01910465  0.15378840     0.15900
H144        H  0.15705928  0.12298167  0.99676590     0.15600
N145        N  0.18987134  0.18508624  0.04740248     0.74700
O146        O  0.14262117  0.92177192  0.10206884    -0.38700
O147        O  0.06330267  0.95348848  0.11955831    -0.38700
O148        O  0.22423607  0.20447018  0.01016929    -0.39400
O149        O  0.15704555  0.21612957  0.06470456    -0.39400
C150        C  0.84666197  0.00559307  0.99889469    -0.11700
C151        C  0.89308761  0.03801966  0.97181712     0.05300
C152        C  0.89119802  0.09518754  0.96083693    -0.07000
C153        C  0.84689293  0.11921205  0.98358333    -0.07700
C154        C  0.80289837  0.08661992  0.01477769    -0.02300
C155        C  0.80120495  0.02938699  0.01915700     0.04500
N156        N  0.75630405  0.99448124  0.04899422     0.67000
H157        H  0.84713827  0.96147660  0.00744350     0.15900
H158        H  0.84954269  0.16287429  0.98037370     0.15600
N159        N  0.93508399  0.12875094  0.42951230     0.74700
O160        O  0.71938568  0.97794140  0.03184097    -0.38700
O161        O  0.76038104  0.96982492  0.08861908    -0.38700
O162        O  0.94810503  0.12433598  0.38795039    -0.39400
O163        O  0.96511500  0.15987808  0.94440952    -0.39400
C164        C  0.71238894  0.24202175  0.11869272    -0.11700
C165        C  0.68795751  0.19183128  0.11729931     0.05300
C166        C  0.63501996  0.17498886  0.14367326    -0.07000
C167        C  0.60879524  0.20687756  0.17322850    -0.07700
C168        C  0.63472380  0.25552959  0.17714684    -0.02300
C169        C  0.68588464  0.27469947  0.14730405     0.04500
N170        N  0.71284419  0.32579902  0.14695825     0.67000
H171        H  0.75399667  0.25404773  0.10022407     0.15900
H172        H  0.56916760  0.19176605  0.19503620     0.15600
N173        N  0.60916578  0.12348905  0.14372643     0.74700
O174        O  0.75093420  0.32629943  0.16771209    -0.38700
O175        O  0.70805234  0.36752886  0.11720374    -0.38700
O176        O  0.61040438  0.08279485  0.17569083    -0.39400
O177        O  0.57503195  0.12202510  0.11917885    -0.39400
C178        C  0.66341883  0.14904744  0.01470358    -0.11700
C179        C  0.71175371  0.17284291  0.51785534     0.05300
C180        C  0.72969306  0.22577994  0.49113465    -0.07000
C181        C  0.69928027  0.25239932  0.46101837    -0.07700
C182        C  0.65010355  0.22813832  0.45717131    -0.02300
C183        C  0.63192779  0.17511425  0.48428552     0.04500
N184        N  0.58162249  0.14987283  0.98449986     0.67000
H185        H  0.64827007  0.10931168  0.03654644     0.15900
H186        H  0.71414502  0.29312397  0.44105771     0.15600
N187        N  0.77780538  0.25417200  0.49484913     0.74700
O188        O  0.58074630  0.11606741  0.95903067    -0.38700
O189        O  0.54012921  0.14952824  0.51469062    -0.38700
O190        O  0.82056988  0.25548080  0.46416397    -0.39400
O191        O  0.77287625  0.29200554  0.51680439    -0.39400
C192        C  0.18747240  0.77474411  0.03358209    -0.11700
C193        C  0.19690926  0.80687530  0.98865054     0.05300
C194        C  0.24519671  0.80356642  0.45673046    -0.07000
C195        C  0.28498002  0.77026892  0.97070100    -0.07700
C196        C  0.27513578  0.73837136  0.01569825    -0.02300
C197        C  0.22518096  0.73919060  0.04661111     0.04500
N198        N  0.21342448  0.70555526  0.09216075     0.67000
H199        H  0.15035266  0.77710662  0.05855841     0.15900
H200        H  0.32351435  0.77064185  0.44708126     0.15600
N201        N  0.25522446  0.83447742  0.41027604     0.74700
O202        O  0.22268920  0.72430271  0.12549865    -0.38700
O203        O  0.19645619  0.65610047  0.09857432    -0.38700
O204        O  0.28808071  0.87654998  0.39789338    -0.39400
O205        O  0.24062846  0.81360003  0.37994289    -0.39400
C206        C  0.34559293  0.54338940  0.18317855    -0.11700
C207        C  0.39903105  0.52867993  0.17468692     0.05300
C208        C  0.43363718  0.54756213  0.13064748    -0.07000
C209        C  0.41586758  0.58513134  0.09717667    -0.07700
C210        C  0.36430794  0.60418476  0.10756071    -0.02300
C211        C  0.32825256  0.58174439  0.15023206     0.04500
N212        N  0.27582941  0.60132546  0.16232447     0.67000
H213        H  0.31872571  0.52891639  0.21694133     0.15900
H214        H  0.44370873  0.60250285  0.06441780     0.15600
N215        N  0.48718931  0.53001130  0.11993702     0.74700
O216        O  0.23456024  0.57259050  0.16113111    -0.38700
O217        O  0.26992447  0.63807848  0.18543237    -0.38700
O218        O  0.49779460  0.49822955  0.09247106    -0.39400
O219        O  0.52555178  0.55350454  0.13103146    -0.39400
C220        C  0.37310269  0.64920712  0.46904639    -0.11700
C221        C  0.33626004  0.62796037  0.01085716     0.05300
C222        C  0.31674928  0.57230101  0.02069223    -0.07000
C223        C  0.33676277  0.53893324  0.98967556    -0.07700
C224        C  0.37559366  0.55989478  0.44899345    -0.02300
C225        C  0.39273477  0.61631648  0.43820244     0.04500
N226        N  0.43039775  0.64130957  0.39610249     0.67000
H227        H  0.38906069  0.69155769  0.46107735     0.15900
H228        H  0.32267627  0.49598387  0.99828740     0.15600
N229        N  0.27618827  0.54912637  0.06137610     0.74700
O230        O  0.41252824  0.66378564  0.36169980    -0.38700
O231        O  0.47900550  0.65286840  0.39693511    -0.38700
O232        O  0.22711701  0.55627040  0.06119989    -0.39400
O233        O  0.28714502  0.50992433  0.09053201    -0.39400
C234        C  0.87234187  0.71161176  0.45803103    -0.11700
C235        C  0.83107582  0.71301148  0.49707250     0.05300
C236        C  0.83962287  0.74715374  0.02714516    -0.07000
C237        C  0.88719364  0.78174631  0.01566146    -0.07700
C238        C  0.92519564  0.78399765  0.47426839    -0.02300
C239        C  0.91892367  0.74760820  0.44603962     0.04500
N240        N  0.95634984  0.75135695  0.40270671     0.67000
H241        H  0.86544879  0.68699935  0.43401335     0.15900
H242        H  0.89290871  0.80933593  0.03775400     0.15600
N243        N  0.79883054  0.74986995  0.06709770     0.74700
O244        O  0.99907586  0.72654877  0.40104462    -0.38700
O245        O  0.95093147  0.78589950  0.36767350    -0.38700
O246        O  0.80127175  0.72115889  0.10583175    -0.39400
O247        O  0.76836310  0.78876181  0.06546373    -0.39400
C248        C  0.69675108  0.63928409  0.08550277    -0.11700
C249        C  0.73623547  0.61662190  0.05644599     0.05300
C250        C  0.74934564  0.56281677  0.07232257    -0.07000
C251        C  0.72060039  0.53193347  0.11547806    -0.07700
C252        C  0.67902674  0.55386232  0.14350954    -0.02300
C253        C  0.66838657  0.60901368  0.12846387     0.04500
N254        N  0.62871009  0.63530248  0.15593769     0.67000
H255        H  0.68601253  0.68039363  0.07351414     0.15900
H256        H  0.73034857  0.49027865  0.12671780     0.15600
N257        N  0.79218330  0.53920727  0.04569341     0.74700
O258        O  0.64284169  0.65956418  0.18457448    -0.38700
O259        O  0.58510272  0.64618298  0.14351355    -0.38700
O260        O  0.84042266  0.55132486  0.04719623    -0.39400
O261        O  0.78158383  0.49604106  0.03290415    -0.39400
C262        C  0.72253628  0.55196684  0.45965321    -0.11700
C263        C  0.69073767  0.59161757  0.47605787     0.05300
C264        C  0.63498795  0.58914348  0.47714355    -0.07000
C265        C  0.61312813  0.55089437  0.45741600    -0.07700
C266        C  0.64626316  0.51574492  0.43548613    -0.02300
C267        C  0.70045689  0.51317905  0.44003654     0.04500
N268        N  0.73464628  0.47483703  0.42186054     0.67000
H269        H  0.76573353  0.55434262  0.45800192     0.15900
H270        H  0.57079297  0.55203800  0.45581701     0.15600
N271        N  0.60081859  0.62794842  0.99418885     0.74700
O272        O  0.76807781  0.49022096  0.38346871    -0.38700
O273        O  0.74054544  0.43083031  0.44858083    -0.38700
O274        O  0.58773434  0.66672961  0.96591035    -0.39400
O275        O  0.57325265  0.61577446  0.03527022    -0.36900
N276        N  0.75340954  0.64383834  0.50835075    -0.02900
C277        C  0.77578053  0.69625909  0.49509624    -0.00300
C278        C  0.75323708  0.72728545  0.96114588    -0.23200
C279        C  0.71711578  0.69246110  0.95156124    -0.23400
C280        C  0.71779434  0.64281042  0.98087573    -0.00400
H281        H  0.76717065  0.76822773  0.94127190     0.13400
H282        H  0.69576943  0.70119363  0.92394950     0.13400
N283        N  0.32679020  0.66126989  0.54508883    -0.02900
C284        C  0.31996648  0.71561085  0.53463044    -0.00300
C285        C  0.34305985  0.74342156  0.56153563    -0.23200
C286        C  0.36442329  0.70529030  0.59024270    -0.23400
C287        C  0.35375118  0.65585399  0.57953088    -0.00400
H288        H  0.33955973  0.78587528  0.56339660     0.13400
H289        H  0.38301191  0.71220707  0.61771514     0.13400
N290        N  0.73734826  0.14744207  0.55402977    -0.02900
C291        C  0.77206527  0.10709152  0.55395553    -0.00300
C292        C  0.78065272  0.08855754  0.59782966    -0.23200
C293        C  0.74907188  0.11665872  0.62624855    -0.23400
C294        C  0.72257336  0.15171944  0.59879091    -0.00400
H295        H  0.80775218  0.05820145  0.60791317     0.13400
H296        H  0.74638078  0.11276395  0.66284588     0.13400
N297        N  0.06461767  0.85004451  0.96136008    -0.36000
N298        N  0.12397278  0.93427870  0.48470983    -0.56600
N299        N  0.03669099  0.00851686  0.47926029    -0.36000
N300        N  0.97895630  0.92479180  0.95437195    -0.56600
C301        C  0.10409398  0.82168342  0.47608375     0.27500
C302        C  0.02077444  0.81439775  0.96963058     0.27500
C303        C  0.06100627  0.02604958  0.50993083     0.27500
C304        C  0.98541141  0.02466533  0.48653110     0.27500
C305        C  0.16418242  0.90047531  0.47804979     0.36200
C306        C  0.14578242  0.97888841  0.49473482     0.36200
C307        C  0.95796054  0.88077113  0.94324299     0.36200
C308        C  0.94782109  0.96587341  0.94340527     0.36200
C309        C  0.08650759  0.76661283  0.99068372    -0.21300
C310        C  0.03328457  0.76227656  0.98784215    -0.21300
C311        C  0.02534737  0.05449880  0.53619778    -0.21300
C312        C  0.97761577  0.05356072  0.52150533    -0.21300
C313        C  0.21218095  0.92458786  0.48267916    -0.22400
C314        C  0.20047913  0.97421287  0.49330051    -0.22400
C315        C  0.91448069  0.89423964  0.92333497    -0.22400
C316        C  0.90876967  0.94872029  0.92246454    -0.22400
C317        C  0.15529337  0.84469755  0.47723209    -0.17700
C318        C  0.97030976  0.82725771  0.95986969    -0.17700
C319        C  0.94551290  0.01201696  0.96327635    -0.17700
C320        C  0.11489404  0.01771122  0.51409664    -0.17700
H321        H  0.10863430  0.73287576  0.00344042     0.15200
H322        H  0.00703044  0.72483547  0.99757231     0.15200
H323        H  0.03261909  0.07323852  0.56365683     0.15200
H324        H  0.94092270  0.07086012  0.53596124     0.15200
H325        H  0.25060926  0.90673514  0.48199805     0.13500
H326        H  0.22814153  0.00204429  0.50201204     0.13500
H327        H  0.88772759  0.86684639  0.91321817     0.13500
H328        H  0.87621035  0.97145490  0.91209690     0.13500
H329        H  0.06843833  0.89152133  0.94408286     0.26700
H330        H  0.05478421  0.98980050  0.45341643     0.26700
N331        N  0.23868187  0.15611223  0.64044754    -0.02900
C332        C  0.19399304  0.12229912  0.64382997    -0.00300
C333        C  0.16317172  0.11129704  0.68883481    -0.23200
C334        C  0.18879042  0.13968811  0.71347465    -0.23400
C335        C  0.23473811  0.16700394  0.68303194    -0.00400
H336        H  0.12565924  0.08552182  0.70233354     0.13400
H337        H  0.17566171  0.13988008  0.74980263     0.13400
N338        N  0.58227373  0.48598647  0.85100245    -0.05600
N339        N  0.58683583  0.51493908  0.88157182    -0.57700
N340        N  0.62191504  0.45590652  0.74739111    -0.05200
N341        N  0.66070521  0.46977069  0.70906314    -0.59800
N342        N  0.58700468  0.49343554  0.74848408    -0.04800
N343        N  0.60095009  0.53331169  0.71146331    -0.57600
N344        N  0.61701668  0.44804859  0.85116810    -0.04500
N345        N  0.64646563  0.45085781  0.88183686    -0.60200
C346        C  0.62666973  0.49270843  0.90070580     0.96600
C347        C  0.64695114  0.51840022  0.68695984     0.96400
N348        N  0.56341622  0.29002407  0.77972325    -0.05700
N349        N  0.56562505  0.26019181  0.74833310    -0.58300
N350        N  0.60620892  0.31974315  0.86922994    -0.03900
N351        N  0.64214346  0.30760726  0.89460629    -0.59500
N352        N  0.56499007  0.28236378  0.88256892    -0.05800
N353        N  0.57252416  0.24382067  0.91722018    -0.58500
N354        N  0.60479123  0.32729457  0.76707735    -0.03500
N355        N  0.63578778  0.32342848  0.72712690    -0.59600
Mn356      Mn  0.61445934  0.38751525  0.80836215     1.18400
C357        C  0.61089801  0.28156551  0.71556415     0.98700
C358        C  0.62088612  0.26025652  0.92459046     0.99400
N359        N  0.46176468  0.49212456  0.76709107    -0.05800
N360        N  0.46400183  0.52107428  0.72523231    -0.62100
N361        N  0.41470958  0.45950243  0.88259511    -0.04600
N362        N  0.37822149  0.47537250  0.91486280    -0.62800
N363        N  0.45730947  0.49508110  0.86838469    -0.05300
N364        N  0.45098230  0.53543051  0.89031910    -0.62400
N365        N  0.41911536  0.45649972  0.78058379    -0.04200
N366        N  0.39107684  0.46087872  0.74827456    -0.63100
Mn367      Mn  0.52221514  0.49288002  0.80858079     1.10700
C368        C  0.42006730  0.50078103  0.71373936     0.99900
C369        C  0.40167786  0.52301062  0.91927584     1.00000
N370        N  0.43618987  0.28859307  0.90649151    -0.05300
N371        N  0.42339602  0.25326479  0.94674304    -0.60700
N372        N  0.40280808  0.32967338  0.80484143    -0.04600
N373        N  0.36771107  0.32419790  0.77935962    -0.57400
N374        N  0.43616883  0.29060349  0.80399901    -0.05900
N375        N  0.42419207  0.25767509  0.77794021    -0.60200
N376        N  0.40357393  0.32858230  0.90657757    -0.04900
N377        N  0.36841423  0.32130702  0.94671813    -0.57400
Mn378      Mn  0.49995217  0.28565694  0.84376376     1.20200
Mn379      Mn  0.40808305  0.39347988  0.84448145     1.10100
Cl380      Cl  0.51114387  0.38972732  0.82663256    -0.85400
C381        C  0.38130066  0.27440589  0.97170085     0.96900
C382        C  0.38139721  0.27928530  0.76250140     0.96700
C383        C  0.32776306  0.18438810  0.69490812    -0.11700
C384        C  0.27494108  0.20064943  0.69694745     0.05300
C385        C  0.25912593  0.24482626  0.71755785    -0.07000
C386        C  0.29512939  0.27052084  0.73717162    -0.07700
C387        C  0.34715251  0.25271156  0.73754031    -0.02300
C388        C  0.36382253  0.20969875  0.71517134     0.04500
N389        N  0.41673845  0.19071340  0.71302927     0.67000
H390        H  0.34031450  0.15032010  0.67925719     0.15900
H391        H  0.28142499  0.30390298  0.75330755     0.15600
N392        N  0.20647061  0.26423836  0.71885320     0.74700
O393        O  0.42327086  0.14976644  0.74279640    -0.38700
O394        O  0.45286436  0.20595112  0.67621731    -0.38700
O395        O  0.17148473  0.25443993  0.75663679    -0.39400
O396        O  0.19966878  0.30131230  0.68600640    -0.39400
C397        C  0.27716226  0.24163519  0.58678628    -0.11700
C398        C  0.27674622  0.18464967  0.59929466     0.05300
C399        C  0.31295920  0.15724900  0.57121628    -0.07000
C400        C  0.34837911  0.18800445  0.03076420    -0.07700
C401        C  0.34721269  0.24502330  0.01694202    -0.02300
C402        C  0.31102824  0.27147040  0.54594941     0.04500
N403        N  0.30825551  0.32937310  0.53462997     0.67000
H404        H  0.24949728  0.26291528  0.60835391     0.15900
H405        H  0.37575171  0.16615461  0.00947573     0.15600
N406        N  0.31565239  0.09948568  0.58394658     0.74700
O407        O  0.26954015  0.34841365  0.51787980    -0.38700
O408        O  0.33509163  0.35937165  0.55202836    -0.38700
O409        O  0.29695075  0.06903470  0.56166293    -0.39400
O410        O  0.34794216  0.08096987  0.60863578    -0.39400
C411        C  0.15979301  0.04114978  0.62025949    -0.11700
C412        C  0.17876001  0.09688560  0.60737160     0.05300
C413        C  0.17656914  0.12652115  0.56274728    -0.07000
C414        C  0.15725102  0.09978738  0.53223324    -0.07700
C415        C  0.13745125  0.04478643  0.54599431    -0.02300
C416        C  0.13821928  0.01551159  0.59054221     0.04500
N417        N  0.11388964  0.96072340  0.60694983     0.67000
H418        H  0.15989389  0.01766877  0.65444792     0.15900
H419        H  0.15534310  0.12269845  0.49829586     0.15600
N420        N  0.18850596  0.18437081  0.54909784     0.74700
O421        O  0.14231925  0.92089189  0.60253435    -0.38700
O422        O  0.06297663  0.95237735  0.62057210    -0.38700
O423        O  0.22217288  0.20430406  0.51157690    -0.39400
O424        O  0.15583569  0.21497829  0.56721854    -0.39400
C425        C  0.84626164  0.00510968  0.49881681    -0.11700
C426        C  0.89261741  0.03773494  0.47184919     0.05300
C427        C  0.89040526  0.09484912  0.46074181    -0.07000
C428        C  0.84581791  0.11868858  0.48328494    -0.07700
C429        C  0.80192178  0.08591341  0.51446854    -0.02300
C430        C  0.80054292  0.02869601  0.51886323     0.04500
N431        N  0.75565425  0.99363286  0.54853026     0.67000
H432        H  0.84695147  0.96101666  0.50739360     0.15900
H433        H  0.84814914  0.16237485  0.47991708     0.15600
N434        N  0.93604724  0.12893640  0.92967850     0.74700
O435        O  0.71869086  0.97740208  0.53127077    -0.38700
O436        O  0.75970979  0.96866525  0.58807199    -0.38700
O437        O  0.94991398  0.12368128  0.88838116    -0.39400
O438        O  0.96503114  0.15864298  0.44439575    -0.39400
C439        C  0.71317975  0.24107035  0.61926331    -0.11700
C440        C  0.68789000  0.19164232  0.61707812     0.05300
C441        C  0.63453711  0.17564419  0.64282926    -0.07000
C442        C  0.60869822  0.20752511  0.67257416    -0.07700
C443        C  0.63538642  0.25537082  0.67724492    -0.02300
C444        C  0.68706849  0.27379527  0.64801148     0.04500
N445        N  0.71496339  0.32406586  0.64849664     0.67000
H446        H  0.75507321  0.25240382  0.60124665     0.15900
H447        H  0.56868400  0.19302392  0.69390329     0.15600
N448        N  0.60780308  0.12490255  0.64210003     0.74700
O449        O  0.75264302  0.32310252  0.66983080    -0.38700
O450        O  0.71139389  0.36647177  0.61894990    -0.38700
O451        O  0.60707611  0.08386549  0.67429320    -0.39400
O452        O  0.57472478  0.12469952  0.61644881    -0.39400
C453        C  0.66303411  0.14801494  0.51391042    -0.11700
C454        C  0.71263641  0.17349051  0.01800181     0.05300
C455        C  0.73109839  0.22598398  0.99055772    -0.07000
C456        C  0.70061498  0.25256793  0.96047447    -0.07700
C457        C  0.65094152  0.22868757  0.95728429    -0.02300
C458        C  0.63233966  0.17606564  0.98502262     0.04500
N459        N  0.58159235  0.14859892  0.48321455     0.67000
H460        H  0.64823031  0.10793728  0.53526261     0.15900
H461        H  0.71585266  0.29296724  0.93999286     0.15600
N462        N  0.77985609  0.25397542  0.99343216     0.74700
O463        O  0.58144891  0.11477679  0.45766176    -0.38700
O464        O  0.54060094  0.15103071  0.01632582    -0.38700
O465        O  0.82176288  0.25564969  0.96178405    -0.39400
O466        O  0.77598014  0.29137822  0.01583630    -0.39400
C467        C  0.18729547  0.77475926  0.53376256    -0.11700
C468        C  0.19668117  0.80695911  0.48885879     0.05300
C469        C  0.24547162  0.80347154  0.95658440    -0.07000
C470        C  0.28471305  0.77031355  0.47076969    -0.07700
C471        C  0.27490392  0.73834242  0.51574007    -0.02300
C472        C  0.22498144  0.73912312  0.54669391     0.04500
N473        N  0.21323328  0.70535914  0.59218935     0.67000
H474        H  0.15020973  0.77710183  0.55878463     0.15900
H475        H  0.32380736  0.77060193  0.94705042     0.15600
N476        N  0.25557432  0.83436823  0.91012233     0.74700
O477        O  0.22278489  0.72388400  0.62554014    -0.38700
O478        O  0.19594971  0.65600828  0.59853971    -0.38700
O479        O  0.28857523  0.87633091  0.89771878    -0.39400
O480        O  0.24081115  0.81358631  0.87980976    -0.39400
C481        C  0.34581231  0.54337023  0.68296122    -0.11700
C482        C  0.39935670  0.52893739  0.67456445     0.05300
C483        C  0.43404268  0.54805316  0.63059645    -0.07000
C484        C  0.41623447  0.58557171  0.59711926    -0.07700
C485        C  0.36451815  0.60431364  0.60740395    -0.02300
C486        C  0.32840367  0.58165112  0.64999099     0.04500
N487        N  0.27589422  0.60106916  0.66204220     0.67000
H488        H  0.31889258  0.52875235  0.71667891     0.15900
H489        H  0.44412712  0.60311989  0.56442835     0.15600
N490        N  0.48771590  0.53078174  0.61997542     0.74700
O491        O  0.23470979  0.57219817  0.66086354    -0.38700
O492        O  0.26984940  0.63791142  0.68505259    -0.38700
O493        O  0.49840987  0.49840050  0.59304122    -0.39400
O494        O  0.52602091  0.55496072  0.63059738    -0.39400
C495        C  0.37277901  0.64948857  0.96865167    -0.11700
C496        C  0.33599091  0.62792329  0.51095872     0.05300
C497        C  0.31599500  0.57243083  0.52062780    -0.07000
C498        C  0.33592680  0.53899193  0.48965363    -0.07700
C499        C  0.37588322  0.56010880  0.94871754    -0.02300
C500        C  0.39231598  0.61669464  0.93767839     0.04500
N501        N  0.42889621  0.64200249  0.89506425     0.67000
H502        H  0.38828213  0.69199327  0.96047633     0.15900
H503        H  0.32141230  0.49616589  0.49811989     0.15600
N504        N  0.27520861  0.54943609  0.56119715     0.74700
O505        O  0.40982910  0.66431239  0.86130469    -0.38700
O506        O  0.47771356  0.65411675  0.89490359    -0.38700
O507        O  0.22622794  0.55686025  0.56084256    -0.39400
O508        O  0.28586320  0.51012026  0.59041911    -0.39400
C509        C  0.87157227  0.71242109  0.95780565    -0.11700
C510        C  0.83061321  0.71390406  0.99704290     0.05300
C511        C  0.83952263  0.74657448  0.52711613    -0.07000
C512        C  0.88675562  0.78165688  0.51564868    -0.07700
C513        C  0.92537649  0.78402280  0.97414551    -0.02300
C514        C  0.91849089  0.74797953  0.94577839     0.04500
N515        N  0.95559144  0.75175735  0.90227426     0.67000
H516        H  0.86423569  0.68806988  0.93373745     0.15900
H517        H  0.89208245  0.80941170  0.53770799     0.15600
N518        N  0.79858816  0.74887628  0.56709900     0.74700
O519        O  0.99873657  0.72763002  0.90040857    -0.38700
O520        O  0.94942495  0.78578168  0.86721509    -0.38700
O521        O  0.80070397  0.71944102  0.60563965    -0.39400
O522        O  0.76846292  0.78805304  0.56585830    -0.39400
C523        C  0.69747275  0.63862847  0.58517155    -0.11700
C524        C  0.73691053  0.61581525  0.55621199     0.05300
C525        C  0.75007041  0.56207034  0.57223944    -0.07000
C526        C  0.72126141  0.53132299  0.61540576    -0.07700
C527        C  0.67969619  0.55338920  0.64331583    -0.02300
C528        C  0.66914321  0.60853788  0.62818728     0.04500
N529        N  0.62965732  0.63502216  0.65565721     0.67000
H530        H  0.68677806  0.67972777  0.57307790     0.15900
H531        H  0.73098766  0.48968852  0.62677227     0.15600
N532        N  0.79309411  0.53844438  0.54582527     0.74700
O533        O  0.64388897  0.65886197  0.68450272    -0.38700
O534        O  0.58627857  0.64653674  0.64305120    -0.38700
O535        O  0.84128996  0.55129178  0.54698833    -0.39400
O536        O  0.78284931  0.49473208  0.53368495    -0.39400
C537        C  0.72368903  0.55404816  0.95829875    -0.11700
C538        C  0.69106657  0.59260720  0.97563159     0.05300
C539        C  0.63526541  0.58916144  0.97704718    -0.07000
C540        C  0.61398890  0.55086692  0.95703889    -0.07700
C541        C  0.64777944  0.51681659  0.93432343    -0.02300
C542        C  0.70227083  0.51538973  0.93817902     0.04500
N543        N  0.73740937  0.47864056  0.91859412     0.67000
H544        H  0.76694402  0.55727251  0.95634223     0.15900
H545        H  0.57150542  0.55119378  0.95582045     0.15600
N546        N  0.60124707  0.62875692  0.49372982     0.74700
O547        O  0.76974768  0.49562986  0.87983437    -0.38700
O548        O  0.74534044  0.43472096  0.94435969    -0.38700
O549        O  0.58875437  0.66751634  0.46506877    -0.39400
O550        O  0.57365255  0.61747146  0.53481450    -0.36900
loop_ 
_geom_bond_atom_site_label_1 
_geom_bond_atom_site_label_2 
_geom_bond_distance 
_geom_bond_site_symmetry_2 
_ccdc_geom_bond_type 
N1            C2   1.359   1_554  A
N1          C280   1.355   1_554  A
N1          C249   1.443       .  S
C2          C278   1.384       .  A
C2          C510   1.466       .  S
C3            C4   1.361       .  A
C3          C277   1.383       .  A
C3            H6   1.083       .  S
C4            C5   1.377       .  A
C4            H7   1.082       .  S
C5          N276   1.355       .  A
C5          C263   1.464       .  S
N8           C12   1.354       .  A
N8            C9   1.359       .  A
N8          C221   1.446       .  S
C9           C10   1.382       .  A
C9          C196   1.465       .  S
C10          C11   1.364       .  A
C10          H13   1.083       .  S
C11          C12   1.377       .  A
C11          H14   1.082       .  S
C12         C210   1.460       .  S
N15          C19   1.357       .  A
N15          C16   1.361       .  A
N15         C454   1.442       .  S
C16          C17   1.384       .  A
C16         C154   1.478       .  S
C17          C18   1.366       .  A
C17          H20   1.082       .  S
C18          C19   1.377       .  A
C18          H21   1.082       .  S
C19         C165   1.467       .  S
N22          C27   1.351       .  A
N22         C301   1.350       .  A
N22          H54   1.038       .  S
N23          C30   1.353       .  A
N23          C31   1.350       .  A
N24          C29   1.353   1_455  A
N24          C28   1.351   1_556  A
N24          H55   1.063   1_545  S
N25          C32   1.344       .  A
N25          C33   1.348       .  A
C26         N297   1.348       .  A
C26          C42   1.413       .  A
C26         C309   1.390       .  A
C27          C43   1.405   1_455  A
C27          C35   1.385       .  A
C28          C36   1.387       .  A
C28          C45   1.415       .  A
C29          C37   1.389   1_556  A
C29         C319   1.420       .  A
C30          C42   1.415       .  A
C30          C38   1.387       .  A
C31          C45   1.410   1_566  A
C31          C39   1.385       .  A
C32          C40   1.385       .  A
C32          C43   1.403       .  A
C33          C41   1.387       .  A
C33          C44   1.407   1_565  A
C34          C35   1.371       .  A
C34         C301   1.389       .  A
C34          H46   1.081       .  S
C35          H47   1.082       .  S
C36          C37   1.376   1_455  A
C36          H48   1.082       .  S
C37          H49   1.082       .  S
C38          C39   1.373       .  A
C38          H50   1.082       .  S
C39          H51   1.083   1_566  S
C40          C41   1.373       .  A
C40          H52   1.082       .  S
C41          H53   1.082       .  S
C42         C193   1.484       .  S
C43         C238   1.474       .  S
C44         C304   1.420       .  A
C44         C426   1.493       .  S
C45         C140   1.486       .  S
N56          C60   1.359       .  A
N56          C57   1.364       .  A
N56         C123   1.439       .  S
C57          C58   1.387       .  A
C57         C137   1.496       .  S
C58          C59   1.373       .  A
C58          H61   1.082       .  S
C59          C60   1.379       .  A
C59          H62   1.082       .  S
C60         C109   1.484       .  S
N63          N64   1.311       .  A
N63          N69   1.316       .  A
N63         Mn92   2.185       .  S
N64          C71   1.350       .  A
N65          N67   1.311       .  A
N65          N66   1.326       .  A
N65         Mn81   2.222       .  S
N66          C72   1.360       .  A
N67          N68   1.316       .  A
N67         Mn92   2.172       .  S
N68          C72   1.348       .  A
N69          N70   1.324       .  A
N69         Mn81   2.201       .  S
N70          C71   1.355       .  A
C71         C266   1.471       .  S
C72         C252   1.489       .  S
N73          N79   1.317       .  A
N73          N74   1.320       .  A
N73        Mn103   2.219       .  S
N74          C82   1.356       .  A
N75          N76   1.318       .  A
N75          N77   1.315       .  A
N75         Mn81   2.207       .  S
N76          C83   1.353       .  A
N77          N78   1.326       .  A
N77        Mn103   2.216       .  S
N78          C83   1.358       .  A
N79          N80   1.318       .  A
N79         Mn81   2.191       .  S
N80          C82   1.352       .  A
Mn81       Cl105   2.559       .  S
C82         C168   1.482       .  S
C83         C182   1.494       .  S
N84          N85   1.316       .  A
N84          N90   1.315       .  A
N84         Mn92   2.184       .  S
N85          C93   1.350       .  A
N86          N88   1.313       .  A
N86          N87   1.328       .  A
N86        Mn104   2.226       .  S
N87          C94   1.361       .  A
N88          N89   1.316       .  A
N88         Mn92   2.179       .  S
N89          C94   1.347       .  A
N90          N91   1.319       .  A
N90        Mn104   2.195       .  S
N91          C93   1.352       .  A
Mn92       Cl105   2.523       .  S
C93         C207   1.461       .  S
C94         C224   1.489       .  S
N95          N96   1.322       .  A
N95         N101   1.319       .  A
N95        Mn103   2.230       .  S
N96         C106   1.357       .  A
N97          N98   1.319       .  A
N97          N99   1.314       .  A
N97        Mn104   2.206       .  S
N98         C107   1.354       .  A
N99         N100   1.325       .  A
N99        Mn103   2.208       .  S
N100        C107   1.356       .  A
N101        N102   1.319       .  A
N101       Mn104   2.203       .  S
N102        C106   1.353       .  A
Mn103      Cl105   2.547       .  S
Mn104      Cl105   2.557       .  S
C106        C126   1.485       .  S
C107        C112   1.491       .  S
C108        C109   1.403       .  A
C108        C113   1.407       .  A
C108        H115   1.084       .  S
C109        C110   1.408       .  A
C110        N117   1.429       .  S
C110        C111   1.398       .  A
C111        C112   1.406       .  A
C111        H116   1.083       .  S
C112        C113   1.417       .  A
C113        N114   1.429       .  S
N114        O118   1.262       .  A
N114        O119   1.262       .  A
N117        O121   1.262       .  A
N117        O120   1.262       .  A
C122        C123   1.400       .  A
C122        C127   1.397       .  A
C122        H129   1.083       .  S
C123        C124   1.407       .  A
C124        N131   1.428       .  S
C124        C400   1.404       .  A
C125        C126   1.408       .  A
C125        C399   1.404       .  A
C125        H130   1.083       .  S
C126        C402   1.415       .  A
C127        N128   1.429       .  S
C127        C401   1.415       .  A
N128        O132   1.262       .  A
N128        O133   1.262       .  A
N131        O135   1.262       .  A
N131        O134   1.262       .  A
C136        C137   1.410       .  A
C136        C141   1.398       .  A
C136        H143   1.084       .  S
C137        C138   1.419       .  A
C138        N145   1.427       .  S
C138        C139   1.406       .  A
C139        C140   1.399       .  A
C139        H144   1.084   1_554  S
C140        C141   1.405       .  A
C141        N142   1.430   1_545  S
N142        O146   1.262       .  A
N142        O147   1.262       .  A
N145        O149   1.262       .  A
N145        O148   1.262       .  A
C150        C151   1.402       .  A
C150        C155   1.395   1_556  A
C150        H157   1.084   1_546  S
C151        C152   1.408       .  A
C151        C319   1.493       .  S
C152        N434   1.430       .  S
C152        C153   1.406       .  A
C153        C154   1.405   1_556  A
C153        H158   1.077       .  S
C154        C155   1.412       .  A
C155        N156   1.430   1_545  S
N156        O160   1.262       .  A
N156        O161   1.262       .  A
N159        C427   1.430       .  S
N159        O438   1.262       .  A
N159        O162   1.262       .  A
O163        N434   1.262       .  A
C164        C165   1.397       .  A
C164        C169   1.397       .  A
C164        H171   1.082       .  S
C165        C166   1.406       .  A
C166        N173   1.428       .  S
C166        C167   1.398       .  A
C167        C168   1.405       .  A
C167        H172   1.084       .  S
C168        C169   1.416       .  A
C169        N170   1.429       .  S
N170        O174   1.262       .  A
N170        O175   1.262       .  A
N173        O177   1.262       .  A
N173        O176   1.262       .  A
C178        C454   1.403       .  A
C178        C458   1.407   1_554  A
C178        H185   1.083       .  S
C179        N290   1.442       .  S
C179        C180   1.409       .  A
C179        C453   1.403       .  A
C180        N187   1.428       .  S
C180        C181   1.400       .  A
C181        C182   1.406       .  A
C181        H186   1.084       .  S
C182        C183   1.416       .  A
C183        N459   1.428       .  S
C183        C453   1.407       .  A
N184        C458   1.428       .  S
N184        O188   1.262       .  A
N184        O464   1.262   1_556  A
N187        O191   1.261       .  A
N187        O190   1.261       .  A
O189        N459   1.262       .  A
C192        C193   1.401   1_554  A
C192        C197   1.391       .  A
C192        H199   1.084       .  S
C193        C469   1.411       .  A
C194        N201   1.428       .  S
C194        C468   1.411       .  A
C194        C470   1.403       .  A
C195        C196   1.400   1_556  A
C195        C469   1.403       .  A
C195        H475   1.083       .  S
C196        C197   1.406       .  A
C197        N198   1.428       .  S
N198        O202   1.262       .  A
N198        O203   1.261       .  A
H200        C470   1.083       .  S
N201        O205   1.262       .  A
N201        O204   1.262       .  A
C206        C207   1.397       .  A
C206        C211   1.393       .  A
C206        H213   1.084       .  S
C207        C208   1.410       .  A
C208        N215   1.429       .  S
C208        C209   1.398       .  A
C209        C210   1.398       .  A
C209        H214   1.084       .  S
C210        C211   1.409       .  A
C211        N212   1.429       .  S
N212        O216   1.261       .  A
N212        O217   1.262       .  A
N215        O219   1.261       .  A
N215        O218   1.262       .  A
C220        C225   1.395       .  A
C220        C496   1.400       .  A
C220        H227   1.083       .  S
C221        C222   1.415       .  A
C221        C495   1.400   1_554  A
C222        N229   1.427       .  S
C222        C223   1.410   1_554  A
C223        C499   1.404       .  A
C223        H228   1.084       .  S
C224        C225   1.416       .  A
C224        C498   1.404       .  A
C225        N226   1.429       .  S
N226        O230   1.262       .  A
N226        O231   1.262       .  A
N229        O233   1.262       .  A
N229        O232   1.262       .  A
C234        C235   1.408       .  A
C234        C239   1.396       .  A
C234        H241   1.084       .  S
C235        C511   1.405       .  A
C235        C277   1.466       .  S
C236        N243   1.428       .  S
C236        C237   1.397       .  A
C236        C510   1.405   1_554  A
C237        C513   1.402   1_554  A
C237        H242   1.084       .  S
C238        C239   1.401       .  A
C238        C512   1.402       .  A
C239        N240   1.429       .  S
N240        O244   1.261       .  A
N240        O245   1.262       .  A
N243        O247   1.262       .  A
N243        O246   1.262       .  A
C248        C249   1.400       .  A
C248        C253   1.395       .  A
C248        H255   1.084       .  S
C249        C250   1.411       .  A
C250        N257   1.428       .  S
C250        C251   1.408       .  A
C251        C252   1.406       .  A
C251        H256   1.084       .  S
C252        C253   1.418       .  A
C253        N254   1.430       .  S
N254        O258   1.262       .  A
N254        O259   1.262       .  A
N257        O261   1.262       .  A
N257        O260   1.262       .  A
C262        C263   1.402       .  A
C262        C267   1.400       .  A
C262        H269   1.083       .  S
C263        C264   1.404       .  A
C264        N546   1.429       .  S
C264        C265   1.389       .  A
C265        C266   1.403       .  A
C265        H270   1.084       .  S
C266        C267   1.411       .  A
C267        N268   1.429       .  S
N268        O272   1.262       .  A
N268        O273   1.262       .  A
N271        C539   1.429       .  S
N271        O275   1.261   1_556  A
N271        O274   1.262       .  A
N276        C277   1.359       .  A
N276        C524   1.442       .  S
C278        C279   1.361       .  A
C278        H281   1.083       .  S
C279        C280   1.376       .  A
C279        H282   1.082       .  S
C280        C538   1.463       .  S
N283        C287   1.354       .  A
N283        C284   1.359       .  A
N283        C496   1.446       .  S
C284        C285   1.382       .  A
C284        C471   1.465       .  S
C285        C286   1.364       .  A
C285        H288   1.083       .  S
C286        C287   1.377       .  A
C286        H289   1.082       .  S
C287        C485   1.460       .  S
N290        C294   1.357       .  A
N290        C291   1.361       .  A
C291        C292   1.384       .  A
C291        C429   1.478       .  S
C292        C293   1.366       .  A
C292        H295   1.082       .  S
C293        C294   1.377       .  A
C293        H296   1.082       .  S
C294        C440   1.468       .  S
N297        C302   1.348       .  A
N297        H329   1.055       .  S
N298        C305   1.353       .  A
N298        C306   1.350       .  A
N299        C304   1.358   1_455  A
N299        C303   1.356       .  A
N299        H330   1.027   1_545  S
N300        C307   1.345       .  A
N300        C308   1.348       .  A
C301        C317   1.412       .  A
C302        C318   1.405   1_455  A
C302        C310   1.385       .  A
C303        C311   1.387       .  A
C303        C320   1.415       .  A
C304        C312   1.388       .  A
C305        C317   1.415       .  A
C305        C313   1.387       .  A
C306        C320   1.410   1_565  A
C306        C314   1.385       .  A
C307        C315   1.385       .  A
C307        C318   1.403       .  A
C308        C316   1.387       .  A
C308        C319   1.407   1_565  A
C309        C310   1.371       .  A
C309        H321   1.081   1_556  S
C310        H322   1.082       .  S
C311        C312   1.377   1_455  A
C311        H323   1.082       .  S
C312        H324   1.082       .  S
C313        C314   1.373       .  A
C313        H325   1.082       .  S
C314        H326   1.083   1_565  S
C315        C316   1.373       .  A
C315        H327   1.082       .  S
C316        H328   1.082       .  S
C317        C468   1.484       .  S
C318        C513   1.474       .  S
C320        C415   1.486       .  S
N331        C335   1.359       .  A
N331        C332   1.365       .  A
N331        C398   1.439       .  S
C332        C333   1.387       .  A
C332        C412   1.496       .  S
C333        C334   1.373       .  A
C333        H336   1.082       .  S
C334        C335   1.379       .  A
C334        H337   1.082       .  S
C335        C384   1.484       .  S
N338        N339   1.311       .  A
N338        N344   1.316       .  A
N338       Mn367   2.185       .  S
N339        C346   1.350       .  A
N340        N342   1.311       .  A
N340        N341   1.326       .  A
N340       Mn356   2.220       .  S
N341        C347   1.360       .  A
N342        N343   1.316       .  A
N342       Mn367   2.171       .  S
N343        C347   1.348       .  A
N344        N345   1.324       .  A
N344       Mn356   2.199       .  S
N345        C346   1.355       .  A
C346        C541   1.470       .  S
C347        C527   1.488       .  S
N348        N354   1.317       .  A
N348        N349   1.320       .  A
N348       Mn378   2.219       .  S
N349        C357   1.356       .  A
N350        N351   1.318       .  A
N350        N352   1.315       .  A
N350       Mn356   2.206       .  S
N351        C358   1.353       .  A
N352        N353   1.326       .  A
N352       Mn378   2.217       .  S
N353        C358   1.358       .  A
N354        N355   1.318       .  A
N354       Mn356   2.190       .  S
N355        C357   1.351       .  A
Mn356      Cl380   2.559       .  S
C357        C443   1.482       .  S
C358        C457   1.494       .  S
N359        N360   1.316       .  A
N359        N365   1.315       .  A
N359       Mn367   2.184       .  S
N360        C368   1.350       .  A
N361        N363   1.313       .  A
N361        N362   1.328       .  A
N361       Mn379   2.227       .  S
N362        C369   1.361       .  A
N363        N364   1.316       .  A
N363       Mn367   2.181       .  S
N364        C369   1.348       .  A
N365        N366   1.319       .  A
N365       Mn379   2.195       .  S
N366        C368   1.352       .  A
Mn367      Cl380   2.524       .  S
C368        C482   1.462       .  S
C369        C499   1.489       .  S
N370        N371   1.323       .  A
N370        N376   1.319       .  A
N370       Mn378   2.230       .  S
N371        C381   1.357       .  A
N372        N373   1.319       .  A
N372        N374   1.314       .  A
N372       Mn379   2.207       .  S
N373        C382   1.354       .  A
N374        N375   1.325       .  A
N374       Mn378   2.208       .  S
N375        C382   1.356       .  A
N376        N377   1.319       .  A
N376       Mn379   2.202       .  S
N377        C381   1.352       .  A
Mn378      Cl380   2.547       .  S
Mn379      Cl380   2.556       .  S
C381        C401   1.485   1_556  S
C382        C387   1.492       .  S
C383        C384   1.403       .  A
C383        C388   1.407       .  A
C383        H390   1.084       .  S
C384        C385   1.408       .  A
C385        N392   1.429       .  S
C385        C386   1.398       .  A
C386        C387   1.406       .  A
C386        H391   1.083       .  S
C387        C388   1.417       .  A
C388        N389   1.429       .  S
N389        O393   1.262       .  A
N389        O394   1.262       .  A
N392        O396   1.262       .  A
N392        O395   1.262       .  A
C397        C398   1.400       .  A
C397        C402   1.397       .  A
C397        H404   1.083       .  S
C398        C399   1.408       .  A
C399        N406   1.428       .  S
C400        C401   1.408       .  A
C400        H405   1.083       .  S
C402        N403   1.429       .  S
N403        O407   1.262       .  A
N403        O408   1.262       .  A
N406        O410   1.262       .  A
N406        O409   1.262       .  A
C411        C412   1.410       .  A
C411        C416   1.398       .  A
C411        H418   1.084       .  S
C412        C413   1.419       .  A
C413        N420   1.427       .  S
C413        C414   1.406       .  A
C414        C415   1.398       .  A
C414        H419   1.084       .  S
C415        C416   1.405       .  A
C416        N417   1.431   1_545  S
N417        O421   1.262       .  A
N417        O422   1.262       .  A
N420        O424   1.262       .  A
N420        O423   1.262       .  A
C425        C426   1.402       .  A
C425        C430   1.395       .  A
C425        H432   1.084   1_545  S
C426        C427   1.408       .  A
C427        C428   1.406       .  A
C428        C429   1.405       .  A
C428        H433   1.077       .  S
C429        C430   1.411       .  A
C430        N431   1.430   1_545  S
N431        O435   1.262       .  A
N431        O436   1.262       .  A
N434        O437   1.262       .  A
C439        C440   1.397       .  A
C439        C444   1.397       .  A
C439        H446   1.082       .  S
C440        C441   1.406       .  A
C441        N448   1.428       .  S
C441        C442   1.399       .  A
C442        C443   1.405       .  A
C442        H447   1.084       .  S
C443        C444   1.416       .  A
C444        N445   1.429       .  S
N445        O449   1.262       .  A
N445        O450   1.262       .  A
N448        O452   1.262       .  A
N448        O451   1.262       .  A
C453        H460   1.083       .  S
C454        C455   1.409   1_554  A
C455        N462   1.428       .  S
C455        C456   1.401       .  A
C456        C457   1.406       .  A
C456        H461   1.084       .  S
C457        C458   1.416       .  A
N459        O463   1.262       .  A
N462        O466   1.261   1_556  A
N462        O465   1.261       .  A
C467        C468   1.401       .  A
C467        C472   1.391       .  A
C467        H474   1.084       .  S
C469        N476   1.428       .  S
C470        C471   1.400       .  A
C471        C472   1.406       .  A
C472        N473   1.428       .  S
N473        O477   1.262       .  A
N473        O478   1.261       .  A
N476        O480   1.262       .  A
N476        O479   1.262       .  A
C481        C482   1.397       .  A
C481        C486   1.393       .  A
C481        H488   1.084       .  S
C482        C483   1.410       .  A
C483        N490   1.429       .  S
C483        C484   1.398       .  A
C484        C485   1.398       .  A
C484        H489   1.084       .  S
C485        C486   1.409       .  A
C486        N487   1.429       .  S
N487        O491   1.261       .  A
N487        O492   1.262       .  A
N490        O494   1.261       .  A
N490        O493   1.262       .  A
C495        C500   1.395       .  A
C495        H502   1.083       .  S
C496        C497   1.414       .  A
C497        N504   1.427       .  S
C497        C498   1.410       .  A
C498        H503   1.084       .  S
C499        C500   1.416       .  A
C500        N501   1.429       .  S
N501        O505   1.262       .  A
N501        O506   1.262       .  A
N504        O508   1.262       .  A
N504        O507   1.262       .  A
C509        C510   1.408       .  A
C509        C514   1.397       .  A
C509        H516   1.084       .  S
C511        N518   1.428       .  S
C511        C512   1.397       .  A
C512        H517   1.084       .  S
C513        C514   1.401       .  A
C514        N515   1.429       .  S
N515        O519   1.261       .  A
N515        O520   1.262       .  A
N518        O522   1.262       .  A
N518        O521   1.262       .  A
C523        C524   1.400       .  A
C523        C528   1.395       .  A
C523        H530   1.084       .  S
C524        C525   1.411       .  A
C525        N532   1.428       .  S
C525        C526   1.407       .  A
C526        C527   1.405       .  A
C526        H531   1.084       .  S
C527        C528   1.417       .  A
C528        N529   1.430       .  S
N529        O533   1.262       .  A
N529        O534   1.262       .  A
N532        O536   1.262       .  A
N532        O535   1.262       .  A
C537        C538   1.402       .  A
C537        C542   1.400       .  A
C537        H544   1.083       .  S
C538        C539   1.403       .  A
C539        C540   1.389       .  A
C540        C541   1.403       .  A
C540        H545   1.084       .  S
C541        C542   1.410       .  A
C542        N543   1.429       .  S
N543        O547   1.262       .  A
N543        O548   1.262       .  A
N546        O550   1.261       .  A
N546        O549   1.262       .  A
