geometry optimzed in LAMMPS
_audit_creation_date              2020-11-30 
_audit_creation_method            'lammps2cif' 
_symmetry_space_group_name_H-M    'P1' 
_symmetry_Int_Tables_number       1 
_symmetry_cell_setting            triclinic 
loop_ 
_symmetry_equiv_pos_as_xyz 
  x,y,z 
_cell_length_a                    35.32896218 
_cell_length_b                    34.692087976017994 
_cell_length_c                    35.08003569576968 
_cell_angle_alpha                 90.44082397786495 
_cell_angle_beta                  86.91156258148135 
_cell_angle_gamma                 87.85233839807648 
loop_ 
_atom_site_label 
_atom_site_type_symbol 
_atom_site_fract_x 
_atom_site_fract_y 
_atom_site_fract_z 
_atom_site_charge 
O1          O  0.24684384  0.30189415  0.06819762    -0.79700
O2          O  0.22847859  0.22578432  0.39174792    -0.79700
O3          O  0.28941867  0.31155205  0.44242297    -0.79700
O4          O  0.17039131  0.23746907  0.02541731    -0.79700
O5          O  0.23258436  0.29151823  0.43373729    -0.79800
O6          O  0.19203403  0.25467862  0.08057262    -0.79700
O7          O  0.18325514  0.22440223  0.43844800    -0.79700
O8          O  0.28175976  0.32617303  0.02144270    -0.79700
C9          C  0.26598797  0.32918120  0.05486434     1.10000
C10         C  0.19355065  0.22360442  0.40153558     1.09900
C11         C  0.25884726  0.31430919  0.42421921     1.10000
C12         C  0.16517470  0.24154257  0.06239145     1.09900
O13         O  0.25295366  0.20964623  0.07166308    -0.79700
O14         O  0.29934867  0.24790779  0.40978910    -0.79800
O15         O  0.32864158  0.25905825  0.03908073    -0.79700
O16         O  0.22889264  0.15720636  0.45738306    -0.79700
O17         O  0.27761007  0.18482379  0.43454032    -0.79700
O18         O  0.27740631  0.24009437  0.07396566    -0.79700
O19         O  0.22405673  0.16936743  0.03607829    -0.79700
O20         O  0.33872347  0.24328782  0.45581958    -0.79700
Co21       Co  0.23189047  0.25419346  0.04093846     1.51500
Co22       Co  0.25127641  0.23654480  0.43821758     1.51700
Co23       Co  0.30547965  0.28089681  0.49015101     1.51600
Co24       Co  0.20870525  0.20285994  0.99004527     1.51500
O25         O  0.26069623  0.24055221  0.99247070    -1.41600
C26         C  0.24278246  0.17512277  0.06565117     1.09900
C27         C  0.33213852  0.23929673  0.42045036     1.10000
C28         C  0.31362175  0.24654837  0.07075878     1.09900
C29         C  0.25890282  0.15518454  0.43653050     1.09900
N30         N  0.09956328  0.23538452  0.10055168    -0.03000
C31         C  0.13397990  0.22183865  0.08462309    -0.00400
C32         C  0.14242429  0.18697458  0.10104083    -0.23300
C33         C  0.11293665  0.17897419  0.12650877    -0.23500
C34         C  0.08625712  0.20833548  0.12481106    -0.00500
H35         H  0.16956816  0.17198603  0.09863909     0.13200
H36         H  0.11346394  0.15793757  0.14863315     0.13300
N37         N  0.37339835  0.24456951  0.11444899    -0.03000
C38         C  0.33731386  0.23514855  0.10510298    -0.00400
C39         C  0.32250213  0.21283674  0.13438180    -0.23300
C40         C  0.35072658  0.20435681  0.15893209    -0.23500
C41         C  0.38236835  0.22367768  0.14636045    -0.00500
H42         H  0.29338854  0.20460570  0.13849443     0.13200
H43         H  0.34726394  0.18865187  0.18535491     0.13300
N44         N  0.12884832  0.23185027  0.36786215    -0.03000
C45         C  0.11698256  0.22615196  0.33109233    -0.00400
C46         C  0.14903779  0.21430766  0.30883338    -0.23300
C47         C  0.17962105  0.21277984  0.33135114    -0.23500
C48         C  0.16651496  0.22082026  0.36849581    -0.00500
H49         H  0.15085118  0.20972726  0.27831101     0.13200
H50         H  0.20874985  0.20676465  0.32126362     0.13300
N51         N  0.39496760  0.23504204  0.37856192    -0.03000
C52         C  0.40316311  0.22400860  0.34144258    -0.00400
C53         C  0.37192104  0.20632463  0.32875266    -0.23300
C54         C  0.34498833  0.20569516  0.35832349    -0.23500
C55         C  0.35953773  0.22300374  0.38936049    -0.00500
H56         H  0.36727947  0.19858879  0.29954640     0.13200
H57         H  0.31592764  0.19745055  0.35616490     0.13300
N58         N  0.99461109  0.40891320  0.07614274    -0.36200
N59         N  0.44696190  0.40364218  0.00830711    -0.56700
N60         N  0.01587726  0.36896355  0.47238294    -0.36200
N61         N  0.06241794  0.37493695  0.03572587    -0.56700
C62         C  0.45895221  0.41135814  0.09148422     0.27400
C63         C  0.01797992  0.40541571  0.10511098     0.27400
C64         C  0.49146284  0.36986639  0.44416542     0.27400
C65         C  0.04975182  0.35618544  0.45670640     0.27400
C66         C  0.42019620  0.40569145  0.03715015     0.36000
C67         C  0.43082139  0.38706648  0.47871269     0.36000
C68         C  0.07470886  0.37488061  0.07123713     0.36000
C69         C  0.08426323  0.34887789  0.51538603     0.36000
C70         C  0.46003953  0.41645578  0.13030575    -0.21400
C71         C  0.99730861  0.41270888  0.13917860    -0.21400
C72         C  0.51028905  0.35840127  0.41030409    -0.21400
C73         C  0.04680747  0.35037858  0.41807454    -0.21400
C74         C  0.38549146  0.39769191  0.02353227    -0.22500
C75         C  0.39211346  0.38449641  0.48702787    -0.22500
C76         C  0.10741404  0.35114590  0.07169283    -0.22500
C77         C  0.11269173  0.33366639  0.53669927    -0.22500
C78         C  0.42905229  0.39416288  0.07383902    -0.17900
C79         C  0.04898941  0.37908465  0.10324971    -0.17900
C80         C  0.07939469  0.34001189  0.47733684    -0.17800
C81         C  0.45252769  0.36532003  0.45069795    -0.17800
H82         H  0.43632162  0.41907775  0.15037932     0.15100
H83         H  0.00712948  0.40935908  0.16769695     0.15100
H84         H  0.49783793  0.34870598  0.38466730     0.15100
H85         H  0.06641705  0.33530139  0.39850271     0.15100
H86         H  0.35918680  0.39547740  0.04005742     0.13300
H87         H  0.37107072  0.37010652  0.47171476     0.13300
H88         H  0.12484538  0.34551837  0.09546437     0.13300
H89         H  0.13515799  0.31298809  0.52778769     0.13300
H90         H  0.00151932  0.40227039  0.04804038     0.26600
H91         H  0.00742075  0.36553224  0.50072318     0.26600
O92         O  0.07537244  0.22813050  0.18762760    -0.79700
O93         O  0.42451284  0.29077627  0.25732381    -0.79700
O94         O  0.44531985  0.20742653  0.17262502    -0.79700
O95         O  0.05937455  0.31044961  0.26735052    -0.79700
O96         O  0.40767322  0.25233074  0.20108758    -0.79800
O97         O  0.09449900  0.27694046  0.22457854    -0.79700
O98         O  0.47652084  0.32026267  0.26483155    -0.79700
O99         O  0.02474350  0.21654968  0.15862529    -0.79700
C100        C  0.06033445  0.21784906  0.15827516     1.10000
C101        C  0.44076133  0.32223615  0.26085745     1.09900
C102        C  0.41420253  0.22940335  0.17330544     1.10000
C103        C  0.09076198  0.30624582  0.24506604     1.09900
O104        O  0.08156290  0.22732824  0.27437819    -0.79700
O105        O  0.42080279  0.19597573  0.24656473    -0.79800
O106        O  0.04528269  0.15954280  0.21423018    -0.79700
O107        O  0.46319656  0.25596333  0.32117020    -0.79700
O108        O  0.42807212  0.22677477  0.27817239    -0.79700
O109        O  0.07830086  0.20216203  0.24551504    -0.79700
O110        O  0.04809491  0.24958115  0.32442719    -0.79700
O111        O  0.46606209  0.15254665  0.23277601    -0.79700
Co112      Co  0.05003994  0.25153030  0.23320173     1.51500
Co113      Co  0.45161011  0.24523708  0.22977431     1.51700
Co114      Co  0.49630763  0.18911609  0.20069024     1.51600
Co115      Co  0.50991587  0.27825776  0.28996119     1.51500
O116        O  0.50182336  0.23074229  0.24823066    -1.41600
C117        C  0.07978651  0.23510353  0.31037037     1.09900
C118        C  0.43106248  0.15994075  0.24056587     1.10000
C119        C  0.07551732  0.16874109  0.23021743     1.09900
C120        C  0.43404673  0.23632711  0.31273547     1.09900
N121        N  0.25373127  0.38385242  0.10590877    -0.03000
C122        C  0.27613328  0.40065406  0.13077790    -0.00400
C123        C  0.31317854  0.38982649  0.12204384    -0.23300
C124        C  0.31332972  0.36489927  0.09091962    -0.23500
C125        C  0.27639250  0.36179861  0.08074371    -0.00500
H126        H  0.33673136  0.39810572  0.13797414     0.13200
H127        H  0.33734645  0.34831098  0.07841155     0.13300
N128        N  0.23566763  0.11682320  0.11469808    -0.03000
C129        C  0.25627949  0.14211823  0.09193841    -0.00400
C130        C  0.29323625  0.13966510  0.10253496    -0.23300
C131        C  0.29460000  0.11705422  0.13468421    -0.23500
C132        C  0.25908801  0.10289915  0.14237945    -0.00500
H133        H  0.31672943  0.15454548  0.08922748     0.13200
H134        H  0.31902443  0.11235549  0.15117045     0.13300
N135        N  0.24959679  0.10188878  0.38724649    -0.03000
C136        C  0.27115102  0.12032753  0.41231094    -0.00400
C137        C  0.30657735  0.10342293  0.41101450    -0.23300
C138        C  0.30750157  0.07458829  0.38326479    -0.23500
C139        C  0.27301826  0.07604262  0.36690958    -0.00500
H140        H  0.32926610  0.11209454  0.42822773     0.13200
H141        H  0.33138318  0.05571021  0.37425085     0.13300
N142        N  0.25349499  0.37053081  0.37436449    -0.03000
C143        C  0.26252831  0.37363409  0.33596741    -0.00400
C144        C  0.27412620  0.33771237  0.32160768    -0.23300
C145        C  0.27303726  0.31232577  0.35186723    -0.23500
C146        C  0.26046508  0.33284044  0.38454602    -0.00500
H147        H  0.28341298  0.33081947  0.29236551     0.13200
H148        H  0.28114082  0.28200697  0.34994176     0.13300
N149        N  0.09358338  0.51692656  0.45595086    -0.36200
N150        N  0.10562348  0.45719056  0.51244303    -0.56700
N151        N  0.09240177  0.51830307  0.06749635    -0.36200
N152        N  0.06957799  0.07937612  0.51569385    -0.56700
C153        C  0.11293076  0.48966465  0.43380435     0.27400
C154        C  0.09810541  0.05078917  0.43769523     0.27400
C155        C  0.09313190  0.48670739  0.08900627     0.27400
C156        C  0.07240699  0.04591903  0.08751800     0.27400
C157        C  0.12143088  0.43769282  0.48196066     0.36000
C158        C  0.12227225  0.44143805  0.04269851     0.36000
C159        C  0.08363186  0.10130941  0.48725553     0.36000
C160        C  0.06933909  0.10112429  0.04801554     0.36000
C161        C  0.12553935  0.50566564  0.39979343    -0.21400
C162        C  0.11627078  0.04362607  0.40242426    -0.21400
C163        C  0.07216329  0.49320082  0.12294888    -0.21400
C164        C  0.05789411  0.03080144  0.12146383    -0.21400
C165        C  0.14337331  0.40644391  0.49360878    -0.22500
C166        C  0.14690807  0.41125818  0.03133846    -0.22500
C167        C  0.08677336  0.13879150  0.50003924    -0.22500
C168        C  0.07688475  0.13888798  0.03847700    -0.22500
C169        C  0.12826061  0.45408165  0.44595284    -0.17900
C170        C  0.10574614  0.08529889  0.45642079    -0.17900
C171        C  0.08126647  0.08433098  0.08216289    -0.17800
C172        C  0.11808493  0.45583095  0.08016952    -0.17800
H173        H  0.14395420  0.49293696  0.37712981     0.15100
H174        H  0.12715888  0.06478007  0.38264287     0.15100
H175        H  0.06894300  0.47373548  0.14673516     0.15100
H176        H  0.04242467  0.04640019  0.14454565     0.15100
H177        H  0.15999534  0.38534422  0.47640339     0.13300
H178        H  0.16503467  0.39351394  0.04828590     0.13300
H179        H  0.10009104  0.16205491  0.48465836     0.13300
H180        H  0.08173886  0.16208652  0.05797566     0.13300
H181        H  0.08405603  0.51448474  0.48429529     0.26600
H182        H  0.11067764  0.52297762  0.04376169     0.26600
N183        N  0.12693818  0.37182846  0.24555957    -0.03000
C184        C  0.12420843  0.33310201  0.23882486    -0.00400
C185        C  0.15838068  0.31939271  0.22174910    -0.23300
C186        C  0.18235456  0.34963975  0.21900977    -0.23500
C187        C  0.16298446  0.38225353  0.23380411    -0.00500
H188        H  0.16560612  0.28998855  0.21276889     0.13200
H189        H  0.21158945  0.34747353  0.20824358     0.13300
N190        N  0.38219292  0.10375704  0.25404001    -0.03000
C191        C  0.36354693  0.07877724  0.23165481    -0.00400
C192        C  0.37344721  0.08691622  0.19404607    -0.23300
C193        C  0.39745859  0.11779974  0.19368007    -0.23500
C194        C  0.40258272  0.12865546  0.23113378    -0.00500
H195        H  0.36497779  0.07129250  0.16931048     0.13200
H196        H  0.41069401  0.13038700  0.16842263     0.13300
N197        N  0.11608175  0.10812374  0.24278570    -0.03000
C198        C  0.15445973  0.09985301  0.24169206    -0.00400
C199        C  0.17299247  0.13207549  0.22853808    -0.23300
C200        C  0.14601822  0.15888091  0.21828721    -0.23500
C201        C  0.11122429  0.14352158  0.22681642    -0.00500
H202        H  0.20308082  0.13583101  0.22543282     0.13200
H203        H  0.15122141  0.18758315  0.20783504     0.13300
N204        N  0.38693863  0.37691200  0.26818622    -0.03000
C205        C  0.36854658  0.39611793  0.24048989    -0.00400
C206        C  0.39060359  0.39589540  0.20764078    -0.23300
C207        C  0.42231135  0.37238565  0.21336228    -0.23500
C208        C  0.41979532  0.36012476  0.25084667    -0.00500
H209        H  0.38382618  0.41285270  0.18320318     0.13200
H210        H  0.44393244  0.36325801  0.19183341     0.13300
N211        N  0.97501252  0.08023789  0.41608363    -0.36200
N212        N  0.02156691  0.01812078  0.37446596    -0.56700
N213        N  0.96749304  0.45579527  0.38985298    -0.36200
N214        N  0.41713768  0.01537601  0.41691869    -0.56700
C215        C  0.99855856  0.10270567  0.39552884     0.27400
C216        C  0.44174457  0.10059470  0.42106231     0.27400
C217        C  0.98994381  0.43941660  0.36147181     0.27400
C218        C  0.43530890  0.43570118  0.39157853     0.27400
C219        C  0.04099798  0.04970925  0.36489823     0.36000
C220        C  0.03915462  0.48877412  0.35407012     0.36000
C221        C  0.39938238  0.04802785  0.42980734     0.36000
C222        C  0.39297124  0.48664536  0.42082758     0.36000
C223        C  0.98330807  0.14011464  0.39506586    -0.21400
C224        C  0.44724386  0.13872518  0.41130489    -0.21400
C225        C  0.97419620  0.40659482  0.34819306    -0.21400
C226        C  0.44130304  0.40297654  0.36882235    -0.21400
C227        C  0.07185822  0.03886404  0.34053697    -0.22500
C228        C  0.07179150  0.50066615  0.33527026    -0.22500
C229        C  0.36366894  0.03918368  0.44484406    -0.22500
C230        C  0.35906474  0.50046349  0.43785275    -0.22500
C231        C  0.02712820  0.08860721  0.36898772    -0.17900
C232        C  0.40796035  0.08339997  0.41262829    -0.17900
C233        C  0.39833955  0.45244751  0.39961408    -0.17800
C234        C  0.02298672  0.45402066  0.34460186    -0.17800
H235        H  0.99413630  0.16423342  0.37904265     0.15100
H236        H  0.42532300  0.16106117  0.40872273     0.15100
H237        H  0.98435473  0.38758879  0.32493118     0.15100
H238        H  0.42215338  0.38106970  0.36266460     0.15100
H239        H  0.09408901  0.05599747  0.32895397     0.13300
H240        H  0.09254496  0.48435121  0.31732781     0.13300
H241        H  0.34217874  0.05865734  0.45772630     0.13300
H242        H  0.33332690  0.48484958  0.44279272     0.13300
H243        H  0.97823337  0.05055276  0.41926018     0.26600
H244        H  0.97333377  0.48029608  0.40524208     0.26600
O245        O  0.25796779  0.40047596  0.19640136    -0.79700
O246        O  0.30956805  0.03883791  0.22168120    -0.79700
O247        O  0.24223879  0.04171404  0.17426708    -0.79700
O248        O  0.33630385  0.45776770  0.25565730    -0.79700
O249        O  0.25515120  0.09175098  0.21131159    -0.79800
O250        O  0.30214174  0.40899627  0.24478595    -0.79700
O251        O  0.33020676  0.03569704  0.27758062    -0.79700
O252        O  0.25403724  0.45749605  0.16904111    -0.79700
C253        C  0.26160204  0.42050253  0.16682642     1.10000
C254        C  0.33410832  0.04900659  0.24409888     1.09900
C255        C  0.25035200  0.07804242  0.17778418     1.10000
C256        C  0.33414993  0.42239774  0.24721543     1.09900
O257        O  0.24425265  0.40973256  0.27988539    -0.79700
O258        O  0.20518849  0.06214507  0.26580651    -0.79800
O259        O  0.18169768  0.44866961  0.21817409    -0.79700
O260        O  0.26878897  0.01796125  0.33182325    -0.79700
O261        O  0.26836582  0.07080317  0.29658821    -0.79700
O262        O  0.21481177  0.41534611  0.25791374    -0.79700
O263        O  0.28206458  0.43822246  0.31936049    -0.79700
O264        O  0.17440863  0.03318031  0.22337185    -0.79700
Co265      Co  0.25765329  0.44176465  0.23201190     1.51500
Co266      Co  0.25609928  0.04653868  0.24354300     1.51700
Co267      Co  0.21768753  0.99455259  0.20436130     1.51600
Co268      Co  0.29954954  0.48750675  0.29251588     1.51500
O269        O  0.25128974  0.49202729  0.25792768    -1.41600
C270        C  0.26151342  0.40993263  0.31150057     1.09900
C271        C  0.17661836  0.06167386  0.24619895     1.10000
C272        C  0.18483648  0.41885126  0.23958637     1.09900
C273        C  0.26694351  0.05446413  0.32996266     1.09900
C274        C  0.35838418  0.38905529  0.33274404    -0.25900
C275        C  0.38511617  0.39834113  0.30357879    -0.13900
C276        C  0.39829806  0.43651861  0.30357237     0.36700
C277        C  0.38610836  0.46198537  0.33323040    -0.25300
C278        C  0.37235346  0.44699384  0.36787364    -0.14600
C279        C  0.35295785  0.41265732  0.36568121     0.37800
N280        N  0.32554714  0.40367647  0.39510908    -0.88800
H281        H  0.34192119  0.36410756  0.32913368     0.18900
H282        H  0.39351774  0.49159700  0.33192453     0.18900
N283        N  0.42275954  0.44963682  0.27285727    -0.87800
H284        H  0.30552857  0.42661554  0.39578985     0.36300
H285        H  0.33838878  0.40377856  0.42121884     0.41300
H286        H  0.40973949  0.47385172  0.26082461     0.41000
H287        H  0.44770232  0.45836920  0.28444527     0.35900
C288        C  0.02696987  0.10043474  0.30074481    -0.25900
C289        C  0.03805589  0.11327672  0.33642897    -0.13900
C290        C  0.07246201  0.13131483  0.33834121     0.36700
C291        C  0.09983888  0.12538911  0.30865413    -0.25300
C292        C  0.09181292  0.10380356  0.27587508    -0.14600
C293        C  0.05441932  0.09304241  0.27125724     0.37800
N294        N  0.04454336  0.07492703  0.23654724    -0.88800
H295        H  0.99875850  0.09048717  0.29756352     0.18900
H296        H  0.12676677  0.13887355  0.30997584     0.18900
N297        N  0.07989371  0.15462765  0.37058943    -0.87800
H298        H  0.02249035  0.09127972  0.22519087     0.36300
H299        H  0.03396595  0.04803053  0.24341354     0.41300
H300        H  0.06060730  0.17823279  0.37133622     0.41000
H301        H  0.07396068  0.13879340  0.39525053     0.35900
C302        C  0.37505177  0.11622968  0.35909987    -0.25900
C303        C  0.40038309  0.08712441  0.37088157    -0.13900
C304        C  0.42082071  0.06471026  0.34202597     0.36700
C305        C  0.41425830  0.07080150  0.30372575    -0.25300
C306        C  0.38685362  0.09769973  0.29335168    -0.14600
C307        C  0.36436208  0.11787435  0.32115744     0.37800
N308        N  0.33080860  0.13964021  0.31149624    -0.88800
H309        H  0.36223783  0.13633036  0.37981863     0.18900
H310        H  0.43109213  0.05480303  0.28174166     0.18900
N311        N  0.45129339  0.03883096  0.35058388    -0.87800
H312        H  0.30748710  0.12899289  0.32678523     0.36300
H313        H  0.32545900  0.13679294  0.28265432     0.41300
H314        H  0.47475817  0.04783128  0.33455966     0.41000
H315        H  0.44696463  0.01152213  0.33972844     0.35900
C316        C  0.06078329  0.39670959  0.32677425    -0.25900
C317        C  0.04310371  0.43023589  0.31448970    -0.13900
C318        C  0.04997550  0.44294010  0.27655379     0.36700
C319        C  0.07919505  0.42452869  0.25406321    -0.25300
C320        C  0.09944380  0.39309552  0.26860340    -0.14600
C321        C  0.08923895  0.37837337  0.30440881     0.37800
N322        N  0.10936387  0.34529627  0.31816977    -0.88800
H323        H  0.05505367  0.38721338  0.35541599     0.18900
H324        H  0.08585925  0.43455378  0.22553810     0.18900
N325        N  0.02955790  0.47528499  0.26117250    -0.87800
H326        H  0.09855489  0.33792737  0.34510887     0.36300
H327        H  0.13736646  0.35309931  0.32030178     0.41300
H328        H  0.00870339  0.48642690  0.28087328     0.41000
H329        H  0.01531197  0.46520446  0.23793615     0.35900
C330        C  0.19733924  0.43812871  0.44000726    -0.25900
C331        C  0.16185933  0.43762814  0.42347783    -0.13900
C332        C  0.15834554  0.41761184  0.38912113     0.36700
C333        C  0.18959897  0.39709710  0.37304219    -0.25300
C334        C  0.22362077  0.39415877  0.39170072    -0.14600
C335        C  0.22722701  0.41384610  0.42614736     0.37800
N336        N  0.25961306  0.40744718  0.44836142    -0.88800
H337        H  0.20009955  0.45311938  0.46681689     0.18900
H338        H  0.18709011  0.38187259  0.34633793     0.18900
N339        N  0.12368910  0.41709967  0.37004719    -0.87800
H340        H  0.25032536  0.39579734  0.47447954     0.36300
H341        H  0.27074945  0.43424181  0.45420170     0.41300
H342        H  0.10123315  0.43133602  0.38545411     0.41000
H343        H  0.12818619  0.43195245  0.34449430     0.35900
C344        C  0.15200665  0.12411123  0.42031833    -0.25900
C345        C  0.14574170  0.09674564  0.44899075    -0.13900
C346        C  0.17519525  0.06840717  0.45525314     0.36700
C347        C  0.20897165  0.06881876  0.43281853    -0.25300
C348        C  0.21252017  0.09339629  0.40165219    -0.14600
C349        C  0.18292989  0.11891020  0.39403854     0.37800
N350        N  0.18366947  0.13779501  0.35829046    -0.88800
H351        H  0.13061504  0.14594896  0.41525243     0.18900
H352        H  0.23252173  0.04928979  0.43882636     0.18900
N353        N  0.16845227  0.03538429  0.47897045    -0.87800
H354        H  0.18376051  0.11650006  0.33701728     0.36300
H355        H  0.20979019  0.15081930  0.35496247     0.41300
H356        H  0.16259886  0.04393389  0.50699758     0.41000
H357        H  0.19277184  0.01737862  0.47928529     0.35900
C358        C  0.17160580  0.09709272  0.13704549    -0.25900
C359        C  0.19841219  0.10377442  0.10730781    -0.13900
C360        C  0.18800787  0.09794246  0.06984379     0.36700
C361        C  0.14971390  0.09512660  0.06268933    -0.25300
C362        C  0.12147283  0.09178292  0.09233429    -0.14600
C363        C  0.13380229  0.08965158  0.13010812     0.37800
N364        N  0.10820530  0.08454600  0.16248041    -0.88800
H365        H  0.17999654  0.09791501  0.16578304     0.18900
H366        H  0.14230236  0.09523114  0.03350842     0.18900
N367        N  0.21659834  0.09156791  0.03965363    -0.87800
H368        H  0.10596978  0.05511091  0.16750893     0.36300
H369        H  0.08174499  0.09776839  0.15812354     0.41300
H370        H  0.20812249  0.10589954  0.01528567     0.41000
H371        H  0.21800502  0.06212185  0.03310730     0.35900
C372        C  0.18535174  0.46338828  0.08617340    -0.25900
C373        C  0.15164428  0.44914361  0.10274070    -0.13900
C374        C  0.15361432  0.41565439  0.12459445     0.36700
C375        C  0.18684607  0.39226037  0.12264299    -0.25300
C376        C  0.21825729  0.40273997  0.09987829    -0.14600
C377        C  0.21813453  0.43954220  0.08299369     0.37800
N378        N  0.25145332  0.45248672  0.06261963    -0.88800
H379        H  0.18442904  0.48985040  0.06989977     0.18900
H380        H  0.18858641  0.36598188  0.13899143     0.18900
N381        N  0.12119687  0.40472834  0.14718313    -0.87800
H382        H  0.25918735  0.47813164  0.07543529     0.36300
H383        H  0.24450562  0.45866960  0.03465508     0.41300
H384        H  0.11566718  0.42642187  0.16767550     0.41000
H385        H  0.12817093  0.37972836  0.16202626     0.35900
C386        C  0.44326214  0.26267125  0.41481757    -0.30700
C387        C  0.41044075  0.26731878  0.39543136    -0.13900
C388        C  0.39047688  0.30273690  0.39496524     0.36700
C389        C  0.40385282  0.33395910  0.41409391    -0.25300
C390        C  0.43721397  0.33050247  0.43322454    -0.14600
C391        C  0.45676652  0.29386302  0.43424219     0.37800
N392        N  0.48980971  0.28777805  0.45550236    -0.88800
H393        H  0.45776195  0.23461533  0.41559317     0.18900
H394        H  0.38893189  0.36138073  0.41271891     0.18900
N395        N  0.35581636  0.30595613  0.37586462    -0.87800
H396        H  0.48428898  0.26567403  0.47486704     0.36300
H397        H  0.51182220  0.27781364  0.43641760     0.41300
H398        H  0.36247338  0.30454537  0.34649033     0.41000
H399        H  0.34141294  0.33190543  0.38302813     0.35900
C400        C  0.12826985  0.31951789  0.42862778    -0.25900
C401        C  0.10295263  0.30917210  0.45819474    -0.13900
C402        C  0.08982271  0.27153874  0.45960395     0.36700
C403        C  0.09515779  0.24753311  0.42757518    -0.25300
C404        C  0.11544395  0.26013621  0.39515501    -0.14600
C405        C  0.13474644  0.29539257  0.39704221     0.37800
N406        N  0.16144921  0.30731816  0.36756919    -0.88800
H407        H  0.13918738  0.34819539  0.42771495     0.18900
H408        H  0.08501925  0.21844759  0.42853121     0.18900
N409        N  0.07140590  0.25773183  0.49369469    -0.87800
H410        H  0.16096549  0.29058032  0.34283708     0.36300
H411        H  0.18855754  0.30465377  0.37781258     0.41300
H412        H  0.04569578  0.24638716  0.48681627     0.41000
H413        H  0.08830568  0.23486378  0.50342662     0.35900
C414        C  0.39865732  0.34827098  0.12039367    -0.25900
C415        C  0.41874660  0.35374194  0.08576326    -0.13900
C416        C  0.42689284  0.32062315  0.06223315     0.36700
C417        C  0.41220955  0.28475213  0.07211963    -0.25300
C418        C  0.38972844  0.28082611  0.10541665    -0.14600
C419        C  0.38323808  0.31271520  0.13015328     0.37800
N420        N  0.35941457  0.30935700  0.16423125    -0.88800
H421        H  0.39292869  0.37244800  0.13852792     0.18900
H422        H  0.41804022  0.25995859  0.05345847     0.18900
N423        N  0.45006064  0.32272365  0.02806006    -0.87800
H424        H  0.33611554  0.32857666  0.16285646     0.36300
H425        H  0.37465334  0.31752305  0.18744183     0.41300
H426        H  0.43372738  0.31251628  0.00655646     0.41000
H427        H  0.47309383  0.30326080  0.03003183     0.35900
C428        C  0.09056082  0.29595456  0.13571251    -0.25900
C429        C  0.08231039  0.27316151  0.10369594    -0.13900
C430        C  0.04645998  0.27997826  0.08790738     0.36700
C431        C  0.02628360  0.31453575  0.09657127    -0.25300
C432        C  0.04114356  0.34149260  0.12082920    -0.14600
C433        C  0.06702611  0.32821904  0.14615482     0.37800
N434        N  0.06695695  0.34599789  0.18285277    -0.88800
H435        H  0.11336854  0.28702194  0.15344230     0.18900
H436        H  0.00264492  0.32313219  0.08013881     0.18900
N437        N  0.02940521  0.25232604  0.06414237    -0.87800
H438        H  0.04097423  0.34014938  0.19691539     0.36300
H439        H  0.06642838  0.37587273  0.18005990     0.41300
H440        H  0.00415234  0.24427976  0.07829338     0.41000
H441        H  0.04634906  0.22717866  0.06045622     0.35900
O442        O  0.24684880  0.30198871  0.56814010    -0.79700
O443        O  0.22835760  0.22592613  0.89174710    -0.79700
O444        O  0.28933985  0.31155070  0.94245790    -0.79700
O445        O  0.17037549  0.23749049  0.52540467    -0.79700
O446        O  0.23247670  0.29158374  0.93384045    -0.79800
O447        O  0.19202532  0.25482737  0.58052310    -0.79700
O448        O  0.18317244  0.22421880  0.93846601    -0.79700
O449        O  0.28182054  0.32622329  0.52139962    -0.79700
C450        C  0.26601906  0.32925554  0.55480720     1.10000
C451        C  0.19345578  0.22356240  0.90154573     1.09900
C452        C  0.25875539  0.31434146  0.92428056     1.10000
C453        C  0.16517483  0.24163054  0.56237573     1.09900
O454        O  0.25286232  0.20972300  0.57167736    -0.79700
O455        O  0.29923331  0.24793511  0.90979610    -0.79800
O456        O  0.32866009  0.25908556  0.53909187    -0.79700
O457        O  0.22891478  0.15710798  0.95748982    -0.79700
O458        O  0.27745155  0.18487643  0.93439667    -0.79700
O459        O  0.27738998  0.24016829  0.57396409    -0.79700
O460        O  0.22406074  0.16944032  0.53600412    -0.79700
O461        O  0.33862550  0.24327222  0.95581365    -0.79700
Co462      Co  0.23189639  0.25427978  0.54090373     1.51500
Co463      Co  0.25114854  0.23659406  0.93822151     1.51700
Co464      Co  0.30541175  0.28086595  0.99016554     1.51600
Co465      Co  0.20873683  0.20295719  0.48999634     1.51500
O466        O  0.26074957  0.24061041  0.49246872    -1.41600
C467        C  0.24269848  0.17519951  0.56563376     1.09900
C468        C  0.33202532  0.23930813  0.92044754     1.10000
C469        C  0.31361593  0.24658409  0.57076479     1.09900
C470        C  0.25883029  0.15518461  0.93649368     1.09900
N471        N  0.09961449  0.23553303  0.60064384    -0.03000
C472        C  0.13398848  0.22195500  0.58465033    -0.00400
C473        C  0.14237754  0.18703332  0.60098051    -0.23300
C474        C  0.11287818  0.17902256  0.62643444    -0.23500
C475        C  0.08624733  0.20843656  0.62481106    -0.00500
H476        H  0.16948965  0.17199041  0.59851787     0.13200
H477        H  0.11336665  0.15792919  0.64850461     0.13300
N478        N  0.37342466  0.24451185  0.61442882    -0.03000
C479        C  0.33730138  0.23517106  0.60511611    -0.00400
C480        C  0.32244939  0.21291307  0.63441867    -0.23300
C481        C  0.35066515  0.20439749  0.65896693    -0.23500
C482        C  0.38234821  0.22364153  0.64637036    -0.00500
H483        H  0.29331992  0.20473250  0.63854054     0.13200
H484        H  0.34717347  0.18872872  0.68540849     0.13300
N485        N  0.12878476  0.23182767  0.86783285    -0.03000
C486        C  0.11694805  0.22615759  0.83105012    -0.00400
C487        C  0.14900823  0.21430553  0.80880148    -0.23300
C488        C  0.17956544  0.21271708  0.83135213    -0.23500
C489        C  0.16643308  0.22073906  0.86849750    -0.00500
H490        H  0.15084270  0.20975850  0.77827153     0.13200
H491        H  0.20869974  0.20670128  0.82128278     0.13300
N492        N  0.39485391  0.23512391  0.87857519    -0.03000
C493        C  0.40310353  0.22406764  0.84147076    -0.00400
C494        C  0.37188121  0.20635497  0.82876551    -0.23300
C495        C  0.34491965  0.20571862  0.85831268    -0.23500
C496        C  0.35943151  0.22305496  0.88935158    -0.00500
H497        H  0.36727599  0.19859206  0.79955927     0.13200
H498        H  0.31587190  0.19743804  0.85613836     0.13300
N499        N  0.99460380  0.40906632  0.57615253    -0.36200
N500        N  0.44692941  0.40361258  0.50830139    -0.56700
N501        N  0.01594132  0.36900130  0.97227805    -0.36200
N502        N  0.06236313  0.37494868  0.53575974    -0.56700
C503        C  0.45892928  0.41137554  0.59148293     0.27400
C504        C  0.01794803  0.40551792  0.60514628     0.27400
C505        C  0.49149143  0.36985675  0.94408991     0.27400
C506        C  0.04981912  0.35622474  0.95659713     0.27400
C507        C  0.42018373  0.40566700  0.53715103     0.36000
C508        C  0.43084933  0.38717601  0.97867323     0.36000
C509        C  0.07469182  0.37498820  0.57125143     0.36000
C510        C  0.08435126  0.34893029  0.01530562     0.36000
C511        C  0.45997603  0.41638130  0.63031457    -0.21400
C512        C  0.99723337  0.41268935  0.63921302    -0.21400
C513        C  0.51029348  0.35830261  0.91023838    -0.21400
C514        C  0.04682879  0.35031333  0.91798312    -0.21400
C515        C  0.38547912  0.39762951  0.52355426    -0.22500
C516        C  0.39212843  0.38465490  0.98697281    -0.22500
C517        C  0.10739710  0.35124722  0.57171761    -0.22500
C518        C  0.11275012  0.33365708  0.03663025    -0.22500
C519        C  0.42908507  0.39410915  0.57381055    -0.17900
C520        C  0.04898788  0.37921603  0.60327495    -0.17900
C521        C  0.07952304  0.34013815  0.97722180    -0.17800
C522        C  0.45253317  0.36538768  0.95065446    -0.17800
H523        H  0.43623930  0.41889059  0.65037119     0.15100
H524        H  0.00702282  0.40926083  0.66773482     0.15100
H525        H  0.49782151  0.34855337  0.88463170     0.15100
H526        H  0.06643106  0.33520938  0.89842072     0.15100
H527        H  0.35917312  0.39548378  0.54007917     0.13300
H528        H  0.37106901  0.37032126  0.97163718     0.13300
H529        H  0.12483776  0.34563301  0.59547992     0.13300
H530        H  0.13523237  0.31300564  0.02769375     0.13300
H531        H  0.00155345  0.40257240  0.54802991     0.26600
H532        H  0.00749854  0.36557063  0.00062386     0.26600
O533        O  0.07534909  0.22816611  0.68762432    -0.79700
O534        O  0.42449852  0.29070661  0.75736723    -0.79700
O535        O  0.44530330  0.20741135  0.67263694    -0.79700
O536        O  0.05938027  0.31046348  0.76728478    -0.79700
O537        O  0.40762684  0.25226846  0.70113192    -0.79800
O538        O  0.09449027  0.27693157  0.72452677    -0.79700
O539        O  0.47650092  0.32024713  0.76469710    -0.79700
O540        O  0.02472260  0.21654447  0.65862681    -0.79700
C541        C  0.06031306  0.21789356  0.65827277     1.10000
C542        C  0.44073380  0.32218475  0.76076642     1.09900
C543        C  0.41417202  0.22936415  0.67333187     1.10000
C544        C  0.09077471  0.30623838  0.74500663     1.09900
O545        O  0.08154137  0.22732869  0.77434121    -0.79700
O546        O  0.42080670  0.19595244  0.74664144    -0.79800
O547        O  0.04524156  0.15953751  0.71421889    -0.79700
O548        O  0.46316132  0.25603267  0.82117491    -0.79700
O549        O  0.42807612  0.22673866  0.77821786    -0.79700
O550        O  0.07829896  0.20216143  0.74545302    -0.79700
O551        O  0.04807968  0.24962583  0.82438112    -0.79700
O552        O  0.46606233  0.15253853  0.73280657    -0.79700
Co553      Co  0.05001987  0.25153800  0.73318978     1.51500
Co554      Co  0.45158735  0.24519599  0.72979863     1.51700
Co555      Co  0.49628821  0.18911252  0.70070010     1.51600
Co556      Co  0.50989842  0.27829424  0.78991457     1.51500
O557        O  0.50181411  0.23073783  0.74823773    -1.41600
C558        C  0.07976331  0.23512109  0.81032657     1.09900
C559        C  0.43106719  0.15992438  0.74062053     1.10000
C560        C  0.07548744  0.16873554  0.73017329     1.09900
C561        C  0.43402353  0.23635471  0.81277025     1.09900
N562        N  0.25374619  0.38393760  0.60582657    -0.03000
C563        C  0.27613191  0.40077667  0.63068561    -0.00400
C564        C  0.31318070  0.38997060  0.62194888    -0.23300
C565        C  0.31334433  0.36500398  0.59085309    -0.23500
C566        C  0.27641415  0.36187757  0.58067941    -0.00500
H567        H  0.33672272  0.39829179  0.63786548     0.13200
H568        H  0.33736082  0.34840215  0.57836508     0.13300
N569        N  0.23552837  0.11685439  0.61464877    -0.03000
C570        C  0.25614945  0.14218610  0.59192830    -0.00400
C571        C  0.29309272  0.13976032  0.60255838    -0.23300
C572        C  0.29445150  0.11712846  0.63468435    -0.23500
C573        C  0.25895079  0.10293607  0.64233609    -0.00500
H574        H  0.31658296  0.15466377  0.58927728     0.13200
H575        H  0.31886288  0.11244342  0.65119428     0.13300
N576        N  0.24953376  0.10191619  0.88718989    -0.03000
C577        C  0.27108770  0.12035846  0.91225040    -0.00400
C578        C  0.30653523  0.10351595  0.91089920    -0.23300
C579        C  0.30746300  0.07469312  0.88313752    -0.23500
C580        C  0.27296908  0.07611465  0.86681494    -0.00500
H581        H  0.32922220  0.11219661  0.92811387     0.13200
H582        H  0.33134346  0.05582789  0.87409802     0.13300
N583        N  0.25351292  0.37054671  0.87438763    -0.03000
C584        C  0.26252736  0.37363058  0.83598197    -0.00400
C585        C  0.27400382  0.33766789  0.82163229    -0.23300
C586        C  0.27285319  0.31228597  0.85190176    -0.23500
C587        C  0.26037483  0.33284217  0.88458370    -0.00500
H588        H  0.28322153  0.33073250  0.79238191     0.13200
H589        H  0.28084336  0.28194036  0.84997739     0.13300
N590        N  0.09362392  0.51685054  0.95606971    -0.36200
N591        N  0.10571228  0.45712989  0.01250814    -0.56700
N592        N  0.09219760  0.51825845  0.56743873    -0.36200
N593        N  0.06963825  0.07939258  0.01579074    -0.56700
C594        C  0.11291881  0.48958999  0.93387991     0.27400
C595        C  0.09809387  0.05071210  0.93780481     0.27400
C596        C  0.09304916  0.48668454  0.58898293     0.27400
C597        C  0.07224590  0.04588191  0.58749273     0.27400
C598        C  0.12158201  0.43766379  0.98203609     0.36000
C599        C  0.12222227  0.44149766  0.54261565     0.36000
C600        C  0.08371548  0.10127509  0.98732849     0.36000
C601        C  0.06918748  0.10108521  0.54794059     0.36000
C602        C  0.12543706  0.50558988  0.89983885    -0.21400
C603        C  0.11617626  0.04355695  0.90249727    -0.21400
C604        C  0.07218321  0.49318687  0.62298177    -0.21400
C605        C  0.05786694  0.03077181  0.62150297    -0.21400
C606        C  0.14356625  0.40644605  0.99368850    -0.22500
C607        C  0.14682248  0.41130209  0.53123487    -0.22500
C608        C  0.08694543  0.13875710  0.00007180    -0.22500
C609        C  0.07667072  0.13887493  0.53844008    -0.22500
C610        C  0.12831652  0.45403278  0.94600743    -0.17900
C611        C  0.10579527  0.08520181  0.95651462    -0.17900
C612        C  0.08111169  0.08429752  0.58209539    -0.17800
C613        C  0.11803641  0.45584049  0.58010653    -0.17800
H614        H  0.14380905  0.49286845  0.87713825     0.15100
H615        H  0.12704129  0.06471449  0.88270766     0.15100
H616        H  0.06906905  0.47374430  0.64679898     0.15100
H617        H  0.04243386  0.04636184  0.64461192     0.15100
H618        H  0.16022127  0.38536528  0.97648514     0.13300
H619        H  0.16497762  0.39356120  0.54815748     0.13300
H620        H  0.10028951  0.16198424  0.98465691     0.13300
H621        H  0.08146962  0.16206810  0.55797071     0.13300
H622        H  0.08418390  0.51443101  0.98444129     0.26600
H623        H  0.11042130  0.52294512  0.54366584     0.26600
N624        N  0.12699351  0.37179305  0.74549120    -0.03000
C625        C  0.12425308  0.33306740  0.73877122    -0.00400
C626        C  0.15844090  0.31934416  0.72173096    -0.23300
C627        C  0.18242428  0.34959103  0.71899911    -0.23500
C628        C  0.16304193  0.38221081  0.73375924    -0.00500
H629        H  0.16566485  0.28993789  0.71275737     0.13200
H630        H  0.21166733  0.34742880  0.70825345     0.13300
N631        N  0.38222718  0.10370716  0.75402358    -0.03000
C632        C  0.36354090  0.07879468  0.73160220    -0.00400
C633        C  0.37340843  0.08702040  0.69400259    -0.23300
C634        C  0.39742780  0.11789616  0.69368447    -0.23500
C635        C  0.40258696  0.12866094  0.73115429    -0.00500
H636        H  0.36490961  0.07146341  0.66923925     0.13200
H637        H  0.41064116  0.13054200  0.66844637     0.13300
N638        N  0.11600037  0.10810269  0.74275885    -0.03000
C639        C  0.15438037  0.09983000  0.74167708    -0.00400
C640        C  0.17291844  0.13202323  0.72845861    -0.23300
C641        C  0.14595606  0.15881893  0.71817735    -0.23500
C642        C  0.11116311  0.14349028  0.72676266    -0.00500
H643        H  0.20300636  0.13576191  0.72532379     0.13200
H644        H  0.15116769  0.18749816  0.70766774     0.13300
N645        N  0.38695504  0.37688036  0.76805648    -0.03000
C646        C  0.36852731  0.39612071  0.74041332    -0.00400
C647        C  0.39044465  0.39574841  0.70747999    -0.23300
C648        C  0.42210658  0.37213580  0.71311802    -0.23500
C649        C  0.41972233  0.35999911  0.75064597    -0.00500
H650        H  0.38361514  0.41269149  0.68305141     0.13200
H651        H  0.44362042  0.36289103  0.69152758     0.13300
N652        N  0.97497813  0.08013526  0.91610257    -0.36200
N653        N  0.02157666  0.01805012  0.87443665    -0.56700
N654        N  0.96759093  0.45568484  0.88981435    -0.36200
N655        N  0.41720041  0.01521682  0.91710148    -0.56700
C656        C  0.99845421  0.10261765  0.89548209     0.27400
C657        C  0.44169367  0.10045289  0.92111612     0.27400
C658        C  0.99005286  0.43932431  0.86143143     0.27400
C659        C  0.43540964  0.43558752  0.89150114     0.27400
C660        C  0.04096437  0.04966628  0.86487638     0.36000
C661        C  0.03920481  0.48872923  0.85403603     0.36000
C662        C  0.39931564  0.04787838  0.92981228     0.36000
C663        C  0.39297628  0.48650033  0.92073817     0.36000
C664        C  0.98315344  0.14000592  0.89501160    -0.21400
C665        C  0.44713857  0.13859204  0.91135469    -0.21400
C666        C  0.97432322  0.40650086  0.84813247    -0.21400
C667        C  0.44142094  0.40286703  0.86873898    -0.21400
C668        C  0.07184740  0.03886458  0.84052680    -0.22500
C669        C  0.07182819  0.50066416  0.83524381    -0.22500
C670        C  0.36348940  0.03902574  0.94451662    -0.22500
C671        C  0.35893488  0.50032888  0.93744493    -0.22500
C672        C  0.02701990  0.08853967  0.86893008    -0.17900
C673        C  0.40794381  0.08323344  0.91262263    -0.17900
C674        C  0.39843868  0.45233534  0.89948886    -0.17800
C675        C  0.02307330  0.45396427  0.84455526    -0.17800
H676        H  0.99390945  0.16412210  0.87893406     0.15100
H677        H  0.42518738  0.16090408  0.90880288     0.15100
H678        H  0.98449051  0.38750994  0.82486186     0.15100
H679        H  0.42228066  0.38095382  0.86256317     0.15100
H680        H  0.09406055  0.05603094  0.82896084     0.13300
H681        H  0.09260741  0.48437487  0.81730759     0.13300
H682        H  0.34190001  0.05848239  0.95723175     0.13300
H683        H  0.33314036  0.48474282  0.94208579     0.13300
H684        H  0.97824207  0.05045379  0.91928575     0.26600
H685        H  0.97340368  0.48019187  0.90520565     0.26600
O686        O  0.25804338  0.40053395  0.69633232    -0.79700
O687        O  0.30954969  0.03886240  0.72159602    -0.79700
O688        O  0.24205761  0.04177206  0.67424390    -0.79700
O689        O  0.33631164  0.45778566  0.75565199    -0.79700
O690        O  0.25514172  0.09177653  0.71125220    -0.79800
O691        O  0.30214623  0.40902221  0.74477925    -0.79700
O692        O  0.33016729  0.03572692  0.77750765    -0.79700
O693        O  0.25394156  0.45755897  0.66899070    -0.79700
C694        C  0.26159102  0.42058017  0.66675870     1.10000
C695        C  0.33408821  0.04902458  0.74402136     1.09900
C696        C  0.25024140  0.07808266  0.67774262     1.10000
C697        C  0.33415410  0.42241718  0.74719870     1.09900
O698        O  0.24429887  0.40972106  0.77984790    -0.79700
O699        O  0.20517705  0.06220308  0.76574807    -0.79800
O700        O  0.18166957  0.44865302  0.71816925    -0.79700
O701        O  0.26872105  0.01802142  0.83175444    -0.79700
O702        O  0.26834320  0.07084988  0.79650095    -0.79700
O703        O  0.21485526  0.41533212  0.75785361    -0.79700
O704        O  0.28203345  0.43825719  0.81936527    -0.79700
O705        O  0.17430669  0.03313087  0.72345331    -0.79700
Co706      Co  0.25768258  0.44179461  0.73197821     1.51500
Co707      Co  0.25608044  0.04656517  0.74347002     1.51700
Co708      Co  0.21760057  0.99457014  0.70436250     1.51600
Co709      Co  0.29951584  0.48754053  0.79248298     1.51500
O710        O  0.25125996  0.49205185  0.75788936    -1.41600
C711        C  0.26152378  0.40993538  0.81148814     1.09900
C712        C  0.17655565  0.06166860  0.74621517     1.10000
C713        C  0.18486691  0.41881955  0.73954595     1.09900
C714        C  0.26688830  0.05452441  0.82988010     1.09900
C715        C  0.35848946  0.38892733  0.83263847    -0.25900
C716        C  0.38521860  0.39822996  0.80347491    -0.13900
C717        C  0.39839636  0.43640670  0.80347247     0.36700
C718        C  0.38618578  0.46186129  0.83312207    -0.25300
C719        C  0.37245594  0.44685590  0.86776052    -0.14600
C720        C  0.35306637  0.41252163  0.86557790     0.37800
N721        N  0.32559515  0.40359529  0.89496964    -0.88800
H722        H  0.34198261  0.36401017  0.82899824     0.18900
H723        H  0.39350777  0.49149616  0.83179241     0.18900
N724        N  0.42281682  0.44955522  0.77273710    -0.87800
H725        H  0.30557134  0.42652694  0.89556805     0.36300
H726        H  0.33837220  0.40375814  0.92111257     0.41300
H727        H  0.40975638  0.47375306  0.76071360     0.41000
H728        H  0.44775586  0.45832955  0.78430427     0.35900
C729        C  0.02684829  0.10031615  0.80067719    -0.25900
C730        C  0.03790162  0.11320540  0.83635685    -0.13900
C731        C  0.07227179  0.13131371  0.83826558     0.36700
C732        C  0.09966898  0.12540350  0.80859697    -0.25300
C733        C  0.09169505  0.10378221  0.77582649    -0.14600
C734        C  0.05431263  0.09297925  0.77118981     0.37800
N735        N  0.04445553  0.07488581  0.73646332    -0.88800
H736        H  0.99865754  0.09031085  0.79749501     0.18900
H737        H  0.12657729  0.13892585  0.80992729     0.18900
N738        N  0.07966317  0.15466892  0.87049919    -0.87800
H739        H  0.02240352  0.09124638  0.72511388     0.36300
H740        H  0.03387536  0.04798610  0.74330724     0.41300
H741        H  0.06034124  0.17824460  0.87122530     0.41000
H742        H  0.07376560  0.13884628  0.89517502     0.35900
C743        C  0.37512598  0.11616791  0.85908240    -0.25900
C744        C  0.40038047  0.08699080  0.87087199    -0.13900
C745        C  0.42079105  0.06455282  0.84201943     0.36700
C746        C  0.41424232  0.07066181  0.80371178    -0.25300
C747        C  0.38687469  0.09760618  0.79333555    -0.14600
C748        C  0.36442464  0.11782053  0.82114340     0.37800
N749        N  0.33089641  0.13962981  0.81148390    -0.88800
H750        H  0.36236200  0.13630913  0.87979254     0.18900
H751        H  0.43106897  0.05465740  0.78172704     0.18900
N752        N  0.45125832  0.03867003  0.85059141    -0.87800
H753        H  0.30755746  0.12902687  0.82677830     0.36300
H754        H  0.32553486  0.13678702  0.78264471     0.41300
H755        H  0.47471712  0.04763079  0.83452876     0.41000
H756        H  0.44691449  0.01134595  0.83978951     0.35900
C757        C  0.06084653  0.39665343  0.82669764    -0.25900
C758        C  0.04319958  0.43020694  0.81443106    -0.13900
C759        C  0.05011283  0.44295284  0.77651338     0.36700
C760        C  0.07933663  0.42454799  0.75403223    -0.25300
C761        C  0.09952543  0.39306613  0.76854697    -0.14600
C762        C  0.08930125  0.37832106  0.80433727     0.37800
N763        N  0.10940097  0.34521990  0.81808421    -0.88800
H764        H  0.05508534  0.38712471  0.85532365     0.18900
H765        H  0.08604589  0.43460993  0.72552849     0.18900
N766        N  0.02974530  0.47533924  0.76114831    -0.87800
H767        H  0.09855696  0.33780861  0.84499828     0.36300
H768        H  0.13739974  0.35301592  0.82026244     0.41300
H769        H  0.00883488  0.48643058  0.78081702     0.41000
H770        H  0.01556904  0.46532226  0.73783822     0.35900
C771        C  0.19739902  0.43819801  0.93997062    -0.25900
C772        C  0.16189914  0.43762677  0.92348897    -0.13900
C773        C  0.15836730  0.41759151  0.88914396     0.36700
C774        C  0.18961626  0.39707475  0.87306897    -0.25300
C775        C  0.22365601  0.39419492  0.89170065    -0.14600
C776        C  0.22729025  0.41392885  0.92611166     0.37800
N777        N  0.25969792  0.40756743  0.94830551    -0.88800
H778        H  0.20017288  0.45321159  0.96676335     0.18900
H779        H  0.18709182  0.38180212  0.84639348     0.18900
N780        N  0.12370150  0.41705499  0.87008324    -0.87800
H781        H  0.25043267  0.39596419  0.97445323     0.36300
H782        H  0.27084820  0.43436978  0.95408303     0.41300
H783        H  0.10125284  0.43131219  0.88548160     0.41000
H784        H  0.12819116  0.43187806  0.84451095     0.35900
C785        C  0.15195417  0.12400136  0.92034072    -0.25900
C786        C  0.14576989  0.09663959  0.94902322    -0.13900
C787        C  0.17525235  0.06832799  0.95525998     0.36700
C788        C  0.20900433  0.06877646  0.93279189    -0.25300
C789        C  0.21248642  0.09336486  0.90162472    -0.14600
C790        C  0.18285429  0.11884207  0.89404204     0.37800
N791        N  0.18349072  0.13768549  0.85827587    -0.88800
H792        H  0.13047480  0.14573986  0.91522924     0.18900
H793        H  0.23258777  0.04928070  0.93877876     0.18900
N794        N  0.16857230  0.03531238  0.97900434    -0.87800
H795        H  0.18352867  0.11636375  0.83703438     0.36300
H796        H  0.20960617  0.15070426  0.85486383     0.41300
H797        H  0.16268460  0.04388895  0.00701681     0.41000
H798        H  0.19294220  0.01738396  0.97936466     0.35900
C799        C  0.17147074  0.09703184  0.63697142    -0.25900
C800        C  0.19827395  0.10378114  0.60724024    -0.13900
C801        C  0.18785312  0.09801174  0.56976854     0.36700
C802        C  0.14955687  0.09515958  0.56262325    -0.25300
C803        C  0.12131883  0.09177761  0.59226570    -0.14600
C804        C  0.13365067  0.08963408  0.63003598     0.37800
N805        N  0.10801581  0.08470753  0.66241674    -0.88800
H806        H  0.17985880  0.09782868  0.66571154     0.18900
H807        H  0.14214109  0.09528595  0.53344455     0.18900
N808        N  0.21642948  0.09175578  0.53954488    -0.87800
H809        H  0.10587842  0.05530569  0.66769500     0.36300
H810        H  0.08151930  0.09778379  0.65793085     0.41300
H811        H  0.20787946  0.10608781  0.51520444     0.41000
H812        H  0.21792041  0.06231829  0.53296132     0.35900
C813        C  0.18528552  0.46339423  0.58614822    -0.25900
C814        C  0.15159002  0.44910143  0.60268870    -0.13900
C815        C  0.15359362  0.41556291  0.62448098     0.36700
C816        C  0.18685994  0.39222374  0.62253109    -0.25300
C817        C  0.21825242  0.40276571  0.59978676    -0.14600
C818        C  0.21807561  0.43956509  0.58290225     0.37800
N819        N  0.25132889  0.45250384  0.56240876    -0.88800
H820        H  0.18433891  0.48987482  0.56990530     0.18900
H821        H  0.18864028  0.36593671  0.63886514     0.18900
N822        N  0.12118935  0.40453552  0.64702462    -0.87800
H823        H  0.25908544  0.47817580  0.57515421     0.36300
H824        H  0.24428458  0.45864095  0.53446237     0.41300
H825        H  0.11562012  0.42616826  0.66757058     0.41000
H826        H  0.12819267  0.37950514  0.66180989     0.35900
C827        C  0.44315262  0.26275658  0.91479612    -0.30700
C828        C  0.41030339  0.26740117  0.89546262    -0.13900
C829        C  0.39032795  0.30281603  0.89502572     0.36700
C830        C  0.40376460  0.33405247  0.91409466    -0.25300
C831        C  0.43715186  0.33058838  0.93319382    -0.14600
C832        C  0.45667223  0.29393610  0.93421842     0.37800
N833        N  0.48969583  0.28782258  0.95550105    -0.88800
H834        H  0.45765447  0.23470036  0.91554948     0.18900
H835        H  0.38888839  0.36148814  0.91268389     0.18900
N836        N  0.35562133  0.30601966  0.87599680    -0.87800
H837        H  0.48414670  0.26571852  0.97485833     0.36300
H838        H  0.51171631  0.27784621  0.93643186     0.41300
H839        H  0.36220282  0.30448898  0.84661382     0.41000
H840        H  0.34126109  0.33200406  0.88309543     0.35900
C841        C  0.12838687  0.31956729  0.92849579    -0.25900
C842        C  0.10307293  0.30928096  0.95809403    -0.13900
C843        C  0.08988093  0.27167677  0.95954500     0.36700
C844        C  0.09511490  0.24765480  0.92751906    -0.25300
C845        C  0.11542998  0.26018010  0.89508230    -0.14600
C846        C  0.13481287  0.29539697  0.89692998     0.37800
N847        N  0.16156845  0.30721331  0.86745380    -0.88800
H848        H  0.13937738  0.34821450  0.92757626     0.18900
H849        H  0.08489575  0.21860137  0.92849823     0.18900
N850        N  0.07146162  0.25793842  0.99366973    -0.87800
H851        H  0.16097756  0.29050750  0.84271097     0.36300
H852        H  0.18867291  0.30437295  0.87767834     0.41300
H853        H  0.04568274  0.24671841  0.98684153     0.41000
H854        H  0.08828436  0.23499941  0.00337766     0.35900
C855        C  0.39860412  0.34822808  0.62029977    -0.25900
C856        C  0.41881840  0.35367344  0.58574044    -0.13900
C857        C  0.42710177  0.32052356  0.56228799     0.36700
C858        C  0.41246724  0.28462853  0.57220585    -0.25300
C859        C  0.38981162  0.28074765  0.60540343    -0.14600
C860        C  0.38319383  0.31267158  0.63006224     0.37800
N861        N  0.35926453  0.30933070  0.66406998    -0.88800
H862        H  0.39275964  0.37243408  0.63835083     0.18900
H863        H  0.41841819  0.25980167  0.55361623     0.18900
N864        N  0.45028916  0.32263414  0.52812721    -0.87800
H865        H  0.33598320  0.32856250  0.66262481     0.36300
H866        H  0.37443274  0.31746707  0.68733833     0.41300
H867        H  0.43398061  0.31239194  0.50662077     0.41000
H868        H  0.47334282  0.30319928  0.53011192     0.35900
C869        C  0.09059264  0.29610910  0.63582609    -0.25900
C870        C  0.08236892  0.27331066  0.60380111    -0.13900
C871        C  0.04654543  0.28012816  0.58796883     0.36700
C872        C  0.02634123  0.31466204  0.59663859    -0.25300
C873        C  0.04117806  0.34163244  0.62088807    -0.14600
C874        C  0.06705254  0.32838763  0.64623540     0.37800
N875        N  0.06694418  0.34618904  0.68292992    -0.88800
H876        H  0.11339552  0.28718695  0.65356403     0.18900
H877        H  0.00272356  0.32325944  0.58018469     0.18900
N878        N  0.02954820  0.25250019  0.56413423    -0.87800
H879        H  0.04095873  0.34032936  0.69697995     0.36300
H880        H  0.06639614  0.37606391  0.68012964     0.41300
H881        H  0.00425181  0.24446226  0.57820235     0.41000
H882        H  0.04647932  0.22734048  0.56049045     0.35900
O883        O  0.24683963  0.80189402  0.06819609    -0.79700
O884        O  0.22847614  0.72578696  0.39174888    -0.79700
O885        O  0.28941751  0.81155280  0.44242190    -0.79700
O886        O  0.17038835  0.73746502  0.02541800    -0.79700
O887        O  0.23258262  0.79151998  0.43373826    -0.79800
O888        O  0.19203120  0.75467459  0.08057338    -0.79700
O889        O  0.18325288  0.72440360  0.43844922    -0.79700
O890        O  0.28175694  0.82617185  0.02144145    -0.79700
C891        C  0.26598434  0.82918069  0.05486255     1.10000
C892        C  0.19354830  0.72360654  0.40153662     1.09900
C893        C  0.25884572  0.81431013  0.42421886     1.10000
C894        C  0.16517219  0.74153782  0.06239224     1.09900
O895        O  0.25295118  0.70964398  0.07166301    -0.79700
O896        O  0.29934696  0.74790835  0.40978889    -0.79800
O897        O  0.32863894  0.75905765  0.03908275    -0.79700
O898        O  0.22889027  0.65720770  0.45738330    -0.79700
O899        O  0.27760754  0.68482538  0.43454049    -0.79700
O900        O  0.27740332  0.74009311  0.07396695    -0.79700
O901        O  0.22405476  0.66936529  0.03607747    -0.79700
O902        O  0.33872261  0.74328969  0.45581891    -0.79700
Co903      Co  0.23188757  0.75419124  0.04093906     1.51500
Co904      Co  0.25127449  0.73654647  0.43821821     1.51700
Co905      Co  0.30547842  0.78089848  0.49015048     1.51600
Co906      Co  0.20870402  0.70285884  0.99004492     1.51500
O907        O  0.26069460  0.74055172  0.99247157    -1.41600
C908        C  0.24277993  0.67512057  0.06565076     1.09900
C909        C  0.33213721  0.73929811  0.42044972     1.10000
C910        C  0.31361875  0.74654744  0.07076064     1.09900
C911        C  0.25890034  0.65518612  0.43653081     1.09900
N912        N  0.09956063  0.73538322  0.10055156    -0.03000
C913        C  0.13397635  0.72183498  0.08462362    -0.00400
C914        C  0.14241692  0.68696920  0.10104017    -0.23300
C915        C  0.11292726  0.67897007  0.12650656    -0.23500
C916        C  0.08625122  0.70833493  0.12480999    -0.00500
H917        H  0.16955921  0.67197762  0.09863778     0.13200
H918        H  0.11345087  0.65793094  0.14862897     0.13300
N919        N  0.37339583  0.74456721  0.11445075    -0.03000
C920        C  0.33731047  0.73514800  0.10510561    -0.00400
C921        C  0.32249745  0.71283872  0.13438592    -0.23300
C922        C  0.35072149  0.70435939  0.15893711    -0.23500
C923        C  0.38236495  0.72367688  0.14636365    -0.00500
H924        H  0.29338365  0.70460808  0.13849831     0.13200
H925        H  0.34725816  0.68865599  0.18536080     0.13300
N926        N  0.12884622  0.73185169  0.36786244    -0.03000
C927        C  0.11698097  0.72615339  0.33109247    -0.00400
C928        C  0.14903660  0.71431036  0.30883342    -0.23300
C929        C  0.17961961  0.71278284  0.33135155    -0.23500
C930        C  0.16651296  0.72082232  0.36849639    -0.00500
H931        H  0.15085016  0.70972978  0.27831097     0.13200
H932        H  0.20874855  0.70676804  0.32126427     0.13300
N933        N  0.39496640  0.73504266  0.37856063    -0.03000
C934        C  0.40316255  0.72400722  0.34144198    -0.00400
C935        C  0.37192060  0.70632270  0.32875247    -0.23300
C936        C  0.34498739  0.70569450  0.35832308    -0.23500
C937        C  0.35953634  0.72300493  0.38935948    -0.00500
H938        H  0.36727959  0.69858592  0.29954630     0.13200
H939        H  0.31592692  0.69744913  0.35616453     0.13300
N940        N  0.99460856  0.90891660  0.07614499    -0.36200
N941        N  0.44696280  0.90363901  0.00831057    -0.56700
N942        N  0.01587526  0.86896705  0.47238044    -0.36200
N943        N  0.06241690  0.87494366  0.03572529    -0.56700
C944        C  0.45894991  0.91135488  0.09148824     0.27400
C945        C  0.01797671  0.90541653  0.10511369     0.27400
C946        C  0.49146141  0.86986546  0.44416903     0.27400
C947        C  0.04974984  0.85618935  0.45670345     0.27400
C948        C  0.42019610  0.90569015  0.03715259     0.36000
C949        C  0.43082039  0.88706729  0.47871360     0.36000
C950        C  0.07470676  0.87488627  0.07123717     0.36000
C951        C  0.08426005  0.84887963  0.51538442     0.36000
C952        C  0.46003698  0.91645054  0.13031017    -0.21400
C953        C  0.99730489  0.91270596  0.13918158    -0.21400
C954        C  0.51028800  0.85840451  0.41030673    -0.21400
C955        C  0.04680417  0.85038010  0.41807194    -0.21400
C956        C  0.38549154  0.89769227  0.02353341    -0.22500
C957        C  0.39211206  0.88450043  0.48702823    -0.22500
C958        C  0.10741308  0.85115360  0.07169283    -0.22500
C959        C  0.11268876  0.83366736  0.53669702    -0.22500
C960        C  0.42905025  0.89416070  0.07384171    -0.17900
C961        C  0.04898705  0.87908668  0.10324986    -0.17900
C962        C  0.07939383  0.84001744  0.47733370    -0.17800
C963        C  0.45252641  0.86531907  0.45070003    -0.17800
H964        H  0.43631908  0.91907223  0.15038365     0.15100
H965        H  0.00712540  0.90935322  0.16769976     0.15100
H966        H  0.49783744  0.84871069  0.38466920     0.15100
H967        H  0.06641322  0.83530218  0.39850015     0.15100
H968        H  0.35918600  0.89548001  0.04005766     0.13300
H969        H  0.37106830  0.87011253  0.47171472     0.13300
H970        H  0.12484363  0.84552592  0.09546491     0.13300
H971        H  0.13515676  0.81299154  0.52778386     0.13300
H972        H  0.00151689  0.90227621  0.04804444     0.26600
H973        H  0.00741992  0.86553961  0.50072103     0.26600
O974        O  0.07536949  0.72813073  0.18762690    -0.79700
O975        O  0.42451343  0.79077309  0.25732683    -0.79700
O976        O  0.44531854  0.70742486  0.17262639    -0.79700
O977        O  0.05937182  0.81044970  0.26735192    -0.79700
O978        O  0.40767273  0.75232930  0.20108986    -0.79800
O979        O  0.09449688  0.77694121  0.22457945    -0.79700
O980        O  0.47652139  0.82026067  0.26482736    -0.79700
O981        O  0.02473920  0.71655328  0.15862594    -0.79700
C982        C  0.06033016  0.71785086  0.15827462     1.10000
C983        C  0.44076145  0.82223368  0.26085656     1.09900
C984        C  0.41420081  0.72940170  0.17330772     1.10000
C985        C  0.09075927  0.80624622  0.24506757     1.09900
O986        O  0.08156110  0.72732773  0.27437867    -0.79700
O987        O  0.42080699  0.69597161  0.24656596    -0.79800
O988        O  0.04528266  0.65954359  0.21422838    -0.79700
O989        O  0.46319509  0.75596313  0.32116874    -0.79700
O990        O  0.42807346  0.72676970  0.27817205    -0.79700
O991        O  0.07830000  0.70216182  0.24551548    -0.79700
O992        O  0.04809281  0.74958095  0.32442762    -0.79700
O993        O  0.46606806  0.65254457  0.23277555    -0.79700
Co994      Co  0.05003844  0.75153022  0.23320231     1.51500
Co995      Co  0.45161075  0.74523498  0.22977487     1.51700
Co996      Co  0.49630950  0.68911519  0.20068874     1.51600
Co997      Co  0.50991502  0.77825644  0.28995949     1.51500
O998        O  0.50182427  0.73074036  0.24822982    -1.41600
C999        C  0.07978461  0.73510359  0.31037075     1.09900
C1000       C  0.43106850  0.65993714  0.24056637     1.10000
C1001       C  0.07551690  0.66874118  0.23021699     1.09900
C1002       C  0.43404665  0.73632448  0.31273480     1.09900
N1003       N  0.25372877  0.88385211  0.10590660    -0.03000
C1004       C  0.27613100  0.90065294  0.13077582    -0.00400
C1005       C  0.31317597  0.88982521  0.12204130    -0.23300
C1006       C  0.31332681  0.86489846  0.09091673    -0.23500
C1007       C  0.27638940  0.86179832  0.08074116    -0.00500
H1008       H  0.33672866  0.89810446  0.13797151     0.13200
H1009       H  0.33734340  0.84831012  0.07840834     0.13300
N1010       N  0.23566563  0.61682029  0.11469704    -0.03000
C1011       C  0.25627709  0.64211613  0.09193775    -0.00400
C1012       C  0.29323359  0.63966537  0.10253541    -0.23300
C1013       C  0.29459794  0.61705460  0.13468452    -0.23500
C1014       C  0.25908642  0.60289824  0.14237908    -0.00500
H1015       H  0.31672607  0.65454746  0.08922877     0.13200
H1016       H  0.31902238  0.61235661  0.15117141     0.13300
N1017       N  0.24959492  0.60189014  0.38724722    -0.03000
C1018       C  0.27114880  0.62032921  0.41231179    -0.00400
C1019       C  0.30657591  0.60342639  0.41101469    -0.23300
C1020       C  0.30750079  0.57459191  0.38326503    -0.23500
C1021       C  0.27301747  0.57604506  0.36691005    -0.00500
H1022       H  0.32926462  0.61209864  0.42822776     0.13200
H1023       H  0.33138270  0.55571434  0.37425097     0.13300
N1024       N  0.25349142  0.87052971  0.37436244    -0.03000
C1025       C  0.26252473  0.87363196  0.33596533    -0.00400
C1026       C  0.27412463  0.83771040  0.32160673    -0.23300
C1027       C  0.27303658  0.81232479  0.35186707    -0.23500
C1028       C  0.26046320  0.83284003  0.38454518    -0.00500
H1029       H  0.28341240  0.83081703  0.29236491     0.13200
H1030       H  0.28114135  0.78200627  0.34994246     0.13300
N1031       N  0.09358381  0.01692808  0.45595268    -0.36200
N1032       N  0.10562241  0.95719371  0.51244592    -0.56700
N1033       N  0.09240662  0.01830862  0.06749923    -0.36200
N1034       N  0.06957353  0.57937328  0.51569162    -0.56700
C1035       C  0.11292922  0.98966499  0.43380595     0.27400
C1036       C  0.09810367  0.55078807  0.43769374     0.27400
C1037       C  0.09313417  0.98671142  0.08900693     0.27400
C1038       C  0.07240254  0.54591426  0.08751437     0.27400
C1039       C  0.12142761  0.93769423  0.48196338     0.36000
C1040       C  0.12227474  0.94144300  0.04269786     0.36000
C1041       C  0.08362715  0.60130756  0.48725395     0.36000
C1042       C  0.06933797  0.60111923  0.04801095     0.36000
C1043       C  0.12553774  0.00566510  0.39979455    -0.21400
C1044       C  0.11627043  0.54362607  0.40242324    -0.21400
C1045       C  0.07216494  0.99320374  0.12294945    -0.21400
C1046       C  0.05789067  0.53079776  0.12146124    -0.21400
C1047       C  0.14336863  0.90644457  0.49361161    -0.22500
C1048       C  0.14691110  0.91126379  0.03133719    -0.22500
C1049       C  0.08676778  0.63878943  0.50003877    -0.22500
C1050       C  0.07688398  0.63888293  0.03847283    -0.22500
C1051       C  0.12825752  0.95408134  0.44595467    -0.17900
C1052       C  0.10574290  0.58529798  0.45641963    -0.17900
C1053       C  0.08126424  0.58432571  0.08215883    -0.17800
C1054       C  0.11808648  0.95583477  0.08016952    -0.17800
H1055       H  0.14395174  0.99293549  0.37713079     0.15100
H1056       H  0.12715786  0.56478076  0.38264221     0.15100
H1057       H  0.06894273  0.97373688  0.14673426     0.15100
H1058       H  0.04242145  0.54639717  0.14454275     0.15100
H1059       H  0.15998857  0.88534340  0.47640607     0.13300
H1060       H  0.16503701  0.89351878  0.04828454     0.13300
H1061       H  0.10008558  0.66205335  0.48465881     0.13300
H1062       H  0.08173739  0.66208144  0.05797178     0.13300
H1063       H  0.08405670  0.01448710  0.48429723     0.26600
H1064       H  0.11068294  0.02298365  0.04376505     0.26600
N1065       N  0.12693366  0.87182971  0.24555738    -0.03000
C1066       C  0.12420590  0.83310191  0.23882835    -0.00400
C1067       C  0.15838056  0.81938995  0.22176054    -0.23300
C1068       C  0.18235426  0.84963679  0.21901982    -0.23500
C1069       C  0.16298174  0.88225303  0.23380570    -0.00500
H1070       H  0.16560754  0.78998417  0.21278686     0.13200
H1071       H  0.21159088  0.84746884  0.20825925     0.13300
N1072       N  0.38219853  0.60375445  0.25403907    -0.03000
C1073       C  0.36355156  0.57877615  0.23165332    -0.00400
C1074       C  0.37345340  0.58691462  0.19404458    -0.23300
C1075       C  0.39746745  0.61779595  0.19367940    -0.23500
C1076       C  0.40259058  0.62865121  0.23113333    -0.00500
H1077       H  0.36498236  0.57129292  0.16930844     0.13200
H1078       H  0.41070400  0.63038307  0.16842242     0.13300
N1079       N  0.11608242  0.60812553  0.24278974    -0.03000
C1080       C  0.15446043  0.59985436  0.24169463    -0.00400
C1081       C  0.17299243  0.63207522  0.22853527    -0.23300
C1082       C  0.14601759  0.65887973  0.21828357    -0.23500
C1083       C  0.11122393  0.64352143  0.22681672    -0.00500
H1084       H  0.20308066  0.63583031  0.22542709     0.13200
H1085       H  0.15122037  0.68758082  0.20782809     0.13300
N1086       N  0.38693846  0.87690966  0.26818473    -0.03000
C1087       C  0.36854426  0.89611398  0.24048893    -0.00400
C1088       C  0.39059893  0.89588920  0.20763859    -0.23300
C1089       C  0.42230698  0.87237914  0.21335885    -0.23500
C1090       C  0.41979404  0.86012111  0.25084416    -0.00500
H1091       H  0.38382000  0.91284639  0.18320146     0.13200
H1092       H  0.44392635  0.86324968  0.19182898     0.13300
N1093       N  0.97501131  0.58023369  0.41608537    -0.36200
N1094       N  0.02156933  0.51811799  0.37446840    -0.56700
N1095       N  0.96749182  0.95579667  0.38985388    -0.36200
N1096       N  0.41713919  0.51537514  0.41692438    -0.56700
C1097       C  0.99855775  0.60270216  0.39553176     0.27400
C1098       C  0.44174427  0.60059403  0.42106240     0.27400
C1099       C  0.98994117  0.93941836  0.36147157     0.27400
C1100       C  0.43530675  0.93570089  0.39157697     0.27400
C1101       C  0.04099873  0.54970726  0.36489981     0.36000
C1102       C  0.03915135  0.98877642  0.35406776     0.36000
C1103       C  0.39938198  0.54802743  0.42980943     0.36000
C1104       C  0.39296975  0.98664646  0.42082324     0.36000
C1105       C  0.98330681  0.64011097  0.39506919    -0.21400
C1106       C  0.44724294  0.63872431  0.41130379    -0.21400
C1107       C  0.97419356  0.90659591  0.34819430    -0.21400
C1108       C  0.44130086  0.90297556  0.36882185    -0.21400
C1109       C  0.07185847  0.53886327  0.34053736    -0.22500
C1110       C  0.07178917  0.00066712  0.33526879    -0.22500
C1111       C  0.36366752  0.53918334  0.44484338    -0.22500
C1112       C  0.35906471  0.00046427  0.43785175    -0.22500
C1113       C  0.02712838  0.58860495  0.36899095    -0.17900
C1114       C  0.40796035  0.58339863  0.41262867    -0.17900
C1115       C  0.39833746  0.95244807  0.39961073    -0.17800
C1116       C  0.02298270  0.95402331  0.34459963    -0.17800
H1117       H  0.99413504  0.66423022  0.37904678     0.15100
H1118       H  0.42532172  0.66105984  0.40872098     0.15100
H1119       H  0.98435146  0.88758959  0.32493241     0.15100
H1120       H  0.42215090  0.88106867  0.36266492     0.15100
H1121       H  0.09408827  0.55599772  0.32895388     0.13300
H1122       H  0.09254185  0.98435139  0.31732613     0.13300
H1123       H  0.34217562  0.55865728  0.45772205     0.13300
H1124       H  0.33332731  0.98485025  0.44279436     0.13300
H1125       H  0.97823246  0.55054855  0.41926153     0.26600
H1126       H  0.97333338  0.98029745  0.40524271     0.26600
O1127       O  0.25796400  0.90047441  0.19639895    -0.79700
O1128       O  0.30956992  0.53883988  0.22168043    -0.79700
O1129       O  0.24223839  0.54171442  0.17426822    -0.79700
O1130       O  0.33630215  0.95776380  0.25565857    -0.79700
O1131       O  0.25515224  0.59175198  0.21131125    -0.79800
O1132       O  0.30213938  0.90899378  0.24478225    -0.79700
O1133       O  0.33020822  0.53569984  0.27758003    -0.79700
O1134       O  0.25403628  0.95749498  0.16903951    -0.79700
C1135       C  0.26159988  0.92050131  0.16682443     1.10000
C1136       C  0.33411074  0.54900790  0.24409780     1.09900
C1137       C  0.25035159  0.57804269  0.17778442     1.10000
C1138       C  0.33414773  0.92239427  0.24721480     1.09900
O1139       O  0.24425106  0.90972972  0.27988249    -0.79700
O1140       O  0.20519046  0.56214702  0.26580774    -0.79800
O1141       O  0.18169561  0.94866897  0.21817242    -0.79700
O1142       O  0.26879136  0.51796366  0.33182373    -0.79700
O1143       O  0.26836716  0.57080551  0.29658845    -0.79700
O1144       O  0.21480938  0.91534597  0.25791260    -0.79700
O1145       O  0.28206091  0.93822008  0.31935939    -0.79700
O1146       O  0.17440934  0.53318109  0.22337484    -0.79700
Co1147     Co  0.25765087  0.94176301  0.23200967     1.51500
Co1148     Co  0.25610106  0.54654039  0.24354335     1.51700
Co1149     Co  0.21768849  0.49455352  0.20436322     1.51600
Co1150     Co  0.29954725  0.98750394  0.29251570     1.51500
O1151       O  0.25128808  0.99202535  0.25792635    -1.41600
C1152       C  0.26151075  0.90992997  0.31149826     1.09900
C1153       C  0.17661944  0.56167511  0.24620146     1.10000
C1154       C  0.18483390  0.91885117  0.23958568     1.09900
C1155       C  0.26694438  0.55446650  0.32996294     1.09900
C1156       C  0.35838336  0.88905613  0.33274055    -0.25900
C1157       C  0.38511716  0.89833974  0.30357639    -0.13900
C1158       C  0.39829981  0.93651694  0.30356864     0.36700
C1159       C  0.38611015  0.96198500  0.33322569    -0.25300
C1160       C  0.37235283  0.94699514  0.36786892    -0.14600
C1161       C  0.35295591  0.91265945  0.36567639     0.37800
N1162       N  0.32554311  0.90368026  0.39510278    -0.88800
H1163       H  0.34191916  0.86410921  0.32913004     0.18900
H1164       H  0.39351970  0.99159654  0.33191878     0.18900
N1165       N  0.42276093  0.94963389  0.27285268    -0.87800
H1166       H  0.30552561  0.92662036  0.39578305     0.36300
H1167       H  0.33838379  0.90378064  0.42121308     0.41300
H1168       H  0.40974047  0.97384799  0.26081897     0.41000
H1169       H  0.44770354  0.95836732  0.28444022     0.35900
C1170       C  0.02697047  0.60043345  0.30074833    -0.25900
C1171       C  0.03805529  0.61327564  0.33643279    -0.13900
C1172       C  0.07245989  0.63131665  0.33834557     0.36700
C1173       C  0.09983757  0.62539308  0.30865845    -0.25300
C1174       C  0.09181337  0.60380654  0.27587935    -0.14600
C1175       C  0.05442067  0.59304314  0.27126113     0.37800
N1176       N  0.04454666  0.57492641  0.23655121    -0.88800
H1177       H  0.99876030  0.59048267  0.29756689     0.18900
H1178       H  0.12676436  0.63887959  0.30998022     0.18900
N1179       N  0.07988808  0.65463236  0.37059298    -0.87800
H1180       H  0.02249291  0.59127750  0.22519424     0.36300
H1181       H  0.03397109  0.54802918  0.24341763     0.41300
H1182       H  0.06060032  0.67823634  0.37133710     0.41000
H1183       H  0.07395449  0.63879957  0.39525494     0.35900
C1184       C  0.37505355  0.61622733  0.35909870    -0.25900
C1185       C  0.40038365  0.58712158  0.37088169    -0.13900
C1186       C  0.42082187  0.56470677  0.34202699     0.36700
C1187       C  0.41426141  0.57079819  0.30372628    -0.25300
C1188       C  0.38685759  0.59769683  0.29335101    -0.14600
C1189       C  0.36436501  0.61787143  0.32115595     0.37800
N1190       N  0.33081172  0.63963690  0.31149361    -0.88800
H1191       H  0.36223916  0.63632847  0.37981675     0.18900
H1192       H  0.43109605  0.55479961  0.28174285     0.18900
N1193       N  0.45129389  0.53882729  0.35058628    -0.87800
H1194       H  0.30749047  0.62899266  0.32678550     0.36300
H1195       H  0.32546044  0.63678501  0.28265253     0.41300
H1196       H  0.47475922  0.54782830  0.33456330     0.41000
H1197       H  0.44696570  0.51151873  0.33972972     0.35900
C1198       C  0.06078047  0.89671350  0.32677300    -0.25900
C1199       C  0.04309919  0.93023832  0.31448753    -0.13900
C1200       C  0.04996898  0.94294090  0.27655080     0.36700
C1201       C  0.07918743  0.92452848  0.25405929    -0.25300
C1202       C  0.09943859  0.89309727  0.26860046    -0.14600
C1203       C  0.08923602  0.87837731  0.30440749     0.37800
N1204       N  0.10936283  0.84530210  0.31816989    -0.88800
H1205       H  0.05505201  0.88721845  0.35541547     0.18900
H1206       H  0.08584919  0.93455183  0.22553317     0.18900
N1207       N  0.02954991  0.97528457  0.26116904    -0.87800
H1208       H  0.09855700  0.83793686  0.34511115     0.36300
H1209       H  0.13736583  0.85310542  0.32029792     0.41300
H1210       H  0.00869837  0.98642929  0.28087144     0.41000
H1211       H  0.01530052  0.96520191  0.23793591     0.35900
C1212       C  0.19733593  0.93812499  0.44000867    -0.25900
C1213       C  0.16185579  0.93762579  0.42347950    -0.13900
C1214       C  0.15834206  0.91761129  0.38912163     0.36700
C1215       C  0.18959559  0.89709741  0.37304125    -0.25300
C1216       C  0.22361761  0.89415811  0.39169917    -0.14600
C1217       C  0.22722418  0.91384409  0.42614646     0.37800
N1218       N  0.25961230  0.90744700  0.44835789    -0.88800
H1219       H  0.20009681  0.95311494  0.46681864     0.18900
H1220       H  0.18708673  0.88187449  0.34633618     0.18900
N1221       N  0.12368565  0.91710031  0.37004770    -0.87800
H1222       H  0.25032732  0.89579623  0.47447646     0.36300
H1223       H  0.27074741  0.93424239  0.45419752     0.41300
H1224       H  0.10122992  0.93133626  0.38545533     0.41000
H1225       H  0.12818287  0.93195411  0.34449543     0.35900
C1226       C  0.15200368  0.62411155  0.42031835    -0.25900
C1227       C  0.14573856  0.59674556  0.44899042    -0.13900
C1228       C  0.17519227  0.56840699  0.45525231     0.36700
C1229       C  0.20896863  0.56881847  0.43281731    -0.25300
C1230       C  0.21251786  0.59339730  0.40165207    -0.14600
C1231       C  0.18292769  0.61891176  0.39403913     0.37800
N1232       N  0.18366840  0.63779892  0.35829230    -0.88800
H1233       H  0.13061189  0.64594905  0.41525238     0.18900
H1234       H  0.23251839  0.54928881  0.43882442     0.18900
N1235       N  0.16844955  0.53538420  0.47896985    -0.87800
H1236       H  0.18376038  0.61650542  0.33701761     0.36300
H1237       H  0.20978902  0.65082372  0.35496636     0.41300
H1238       H  0.16259482  0.54393382  0.50699675     0.41000
H1239       H  0.19276969  0.51737958  0.47928586     0.35900
C1240       C  0.17160401  0.59708589  0.13704353    -0.25900
C1241       C  0.19841061  0.60376953  0.10730623    -0.13900
C1242       C  0.18800632  0.59793855  0.06984192     0.36700
C1243       C  0.14971232  0.59512233  0.06268715    -0.25300
C1244       C  0.12147091  0.59177685  0.09233155    -0.14600
C1245       C  0.13380041  0.58964457  0.13010562     0.37800
N1246       N  0.10820342  0.58453874  0.16247798    -0.88800
H1247       H  0.17999418  0.59790759  0.16578147     0.18900
H1248       H  0.14230105  0.59522874  0.03350617     0.18900
N1249       N  0.21659685  0.59156625  0.03965137    -0.87800
H1250       H  0.10596878  0.55510357  0.16750682     0.36300
H1251       H  0.08174272  0.59775992  0.15812061     0.41300
H1252       H  0.20812001  0.60589792  0.01528379     0.41000
H1253       H  0.21800511  0.56212035  0.03310428     0.35900
C1254       C  0.18535281  0.96339153  0.08617422    -0.25900
C1255       C  0.15164514  0.94914759  0.10274140    -0.13900
C1256       C  0.15361446  0.91565899  0.12459591     0.36700
C1257       C  0.18684510  0.89226360  0.12264369    -0.25300
C1258       C  0.21825559  0.90274111  0.09987677    -0.14600
C1259       C  0.21813409  0.93954355  0.08299229     0.37800
N1260       N  0.25145218  0.95248620  0.06261559    -0.88800
H1261       H  0.18443075  0.98985394  0.06990102     0.18900
H1262       H  0.18858542  0.86598611  0.13899384     0.18900
N1263       N  0.12119797  0.90473595  0.14718765    -0.87800
H1264       H  0.25918849  0.97813073  0.07543036     0.36300
H1265       H  0.24450240  0.95866949  0.03465171     0.41300
H1266       H  0.11567130  0.92643099  0.16767897     0.41000
H1267       H  0.12817230  0.87973676  0.16203189     0.35900
C1268       C  0.44326243  0.76267137  0.41481469    -0.30700
C1269       C  0.41044043  0.76731929  0.39542948    -0.13900
C1270       C  0.39047665  0.80273750  0.39496425     0.36700
C1271       C  0.40385162  0.83395884  0.41409522    -0.25300
C1272       C  0.43721294  0.83050170  0.43322570    -0.14600
C1273       C  0.45676659  0.79386235  0.43424079     0.37800
N1274       N  0.48981040  0.78777650  0.45550009    -0.88800
H1275       H  0.45776277  0.73461560  0.41558858     0.18900
H1276       H  0.38893036  0.86138055  0.41272080     0.18900
N1277       N  0.35581753  0.80595789  0.37586130    -0.87800
H1278       H  0.48429039  0.76567157  0.47486395     0.36300
H1279       H  0.51182282  0.77781321  0.43641469     0.41300
H1280       H  0.36247671  0.80454850  0.34648733     0.41000
H1281       H  0.34141406  0.83190722  0.38302481     0.35900
C1282       C  0.12826806  0.81952315  0.42862263    -0.25900
C1283       C  0.10295230  0.80917814  0.45819131    -0.13900
C1284       C  0.08982361  0.77154447  0.45960330     0.36700
C1285       C  0.09515730  0.74753750  0.42757545    -0.25300
C1286       C  0.11544230  0.76013909  0.39515391    -0.14600
C1287       C  0.13474462  0.79539578  0.39703846     0.37800
N1288       N  0.16144765  0.80731915  0.36756455    -0.88800
H1289       H  0.13918512  0.84820076  0.42770811     0.18900
H1290       H  0.08501922  0.71845185  0.42853346     0.18900
N1291       N  0.07140909  0.75773887  0.49369596    -0.87800
H1292       H  0.16096169  0.79058147  0.34283254     0.36300
H1293       H  0.18855622  0.80465255  0.37780715     0.41300
H1294       H  0.04569781  0.74639508  0.48682005     0.41000
H1295       H  0.08830917  0.73487069  0.50342721     0.35900
C1296       C  0.39865288  0.84826871  0.12039384    -0.25900
C1297       C  0.41874399  0.85373952  0.08576462    -0.13900
C1298       C  0.42689208  0.82062041  0.06223527     0.36700
C1299       C  0.41220887  0.78474926  0.07212182    -0.25300
C1300       C  0.38972613  0.78082358  0.10541798    -0.14600
C1301       C  0.38323393  0.81271302  0.13015359     0.37800
N1302       N  0.35940939  0.80935483  0.16423089    -0.88800
H1303       H  0.39292319  0.87244595  0.13852686     0.18900
H1304       H  0.41804077  0.75995536  0.05346143     0.18900
N1305       N  0.45006091  0.82272070  0.02806268    -0.87800
H1306       H  0.33611034  0.82857443  0.16285541     0.36300
H1307       H  0.37464731  0.81752049  0.18744213     0.41300
H1308       H  0.43372816  0.81251383  0.00655838     0.41000
H1309       H  0.47309346  0.80325705  0.03003439     0.35900
C1310       C  0.09056298  0.79595498  0.13570932    -0.25900
C1311       C  0.08231033  0.77316125  0.10369412    -0.13900
C1312       C  0.04645938  0.77997839  0.08790699     0.36700
C1313       C  0.02628395  0.81453636  0.09657118    -0.25300
C1314       C  0.04114470  0.84149322  0.12082834    -0.14600
C1315       C  0.06702932  0.82822007  0.14615212     0.37800
N1316       N  0.06696266  0.84599936  0.18284959    -0.88800
H1317       H  0.11337093  0.78702186  0.15343873     0.18900
H1318       H  0.00264389  0.82313281  0.08014112     0.18900
N1319       N  0.02940267  0.75232537  0.06414426    -0.87800
H1320       H  0.04098166  0.84014871  0.19691451     0.36300
H1321       H  0.06643009  0.87587420  0.18005626     0.41300
H1322       H  0.00415240  0.74427717  0.07829905     0.41000
H1323       H  0.04634776  0.72717918  0.06045446     0.35900
O1324       O  0.24685343  0.80198707  0.56814169    -0.79700
O1325       O  0.22835909  0.72592254  0.89174770    -0.79700
O1326       O  0.28933935  0.81154941  0.94245788    -0.79700
O1327       O  0.17037505  0.73748918  0.52540859    -0.79700
O1328       O  0.23247678  0.79158179  0.93383888    -0.79800
O1329       O  0.19202791  0.75482522  0.58052619    -0.79700
O1330       O  0.18317290  0.72422027  0.93846616    -0.79700
O1331       O  0.28181757  0.82622506  0.52139766    -0.79700
C1332       C  0.26602030  0.82925573  0.55480706     1.10000
C1333       C  0.19345676  0.72356235  0.90154604     1.09900
C1334       C  0.25875514  0.81434040  0.92428009     1.10000
C1335       C  0.16517686  0.74162768  0.56238007     1.09900
O1336       O  0.25286419  0.70971993  0.57167591    -0.79700
O1337       O  0.29923453  0.74793342  0.90979703    -0.79800
O1338       O  0.32865952  0.75908823  0.53909224    -0.79700
O1339       O  0.22891349  0.65710762  0.95748810    -0.79700
O1340       O  0.27745336  0.68487471  0.93440083    -0.79700
O1341       O  0.27739109  0.74016618  0.57396398    -0.79700
O1342       O  0.22405994  0.66943911  0.53600319    -0.79700
O1343       O  0.33862590  0.74327149  0.95581522    -0.79700
Co1344     Co  0.23189721  0.75427891  0.54090534     1.51500
Co1345     Co  0.25114936  0.73659217  0.93822224     1.51700
Co1346     Co  0.30541041  0.78086493  0.99016625     1.51600
Co1347     Co  0.20873555  0.70295788  0.48999725     1.51500
O1348       O  0.26074877  0.74061124  0.49246906    -1.41600
C1349       C  0.24269916  0.67519685  0.56563193     1.09900
C1350       C  0.33202674  0.73930751  0.92044880     1.10000
C1351       C  0.31361644  0.74658433  0.57076480     1.09900
C1352       C  0.25883113  0.65518341  0.93649517     1.09900
N1353       N  0.09961673  0.73552884  0.60064673    -0.03000
C1354       C  0.13399187  0.72195152  0.58465601    -0.00400
C1355       C  0.14238080  0.68703020  0.60098732    -0.23300
C1356       C  0.11287951  0.67901867  0.62643874    -0.23500
C1357       C  0.08624887  0.70843298  0.62481417    -0.00500
H1358       H  0.16949312  0.67198747  0.59852642     0.13200
H1359       H  0.11336585  0.65792354  0.64850736     0.13300
N1360       N  0.37342568  0.74451118  0.61442883    -0.03000
C1361       C  0.33730210  0.73517139  0.60511618    -0.00400
C1362       C  0.32244973  0.71291374  0.63441879    -0.23300
C1363       C  0.35066554  0.70439681  0.65896658    -0.23500
C1364       C  0.38234912  0.72364009  0.64637009    -0.00500
H1365       H  0.29332010  0.70473363  0.63854059     0.13200
H1366       H  0.34717367  0.68872752  0.68540782     0.13300
N1367       N  0.12878575  0.73183091  0.86783451    -0.03000
C1368       C  0.11694755  0.72615888  0.83105254    -0.00400
C1369       C  0.14900680  0.71430524  0.80880321    -0.23300
C1370       C  0.17956493  0.71271785  0.83135254    -0.23500
C1371       C  0.16643383  0.72074130  0.86849803    -0.00500
H1372       H  0.15083988  0.70975525  0.77827354     0.13200
H1373       H  0.20869872  0.70670060  0.82128230     0.13300
N1374       N  0.39485635  0.73512258  0.87857593    -0.03000
C1375       C  0.40310563  0.72406529  0.84147170    -0.00400
C1376       C  0.37188310  0.70635295  0.82876700    -0.23300
C1377       C  0.34492170  0.70571710  0.85831435    -0.23500
C1378       C  0.35943362  0.72305418  0.88935291    -0.00500
H1379       H  0.36727769  0.69859035  0.79956072     0.13200
H1380       H  0.31587402  0.69743618  0.85614020     0.13300
N1381       N  0.99460183  0.90906844  0.57615512    -0.36200
N1382       N  0.44692920  0.90361262  0.50830220    -0.56700
N1383       N  0.01594175  0.86900427  0.97227592    -0.36200
N1384       N  0.06235826  0.87494738  0.53576033    -0.56700
C1385       C  0.45892845  0.91137504  0.59148418     0.27400
C1386       C  0.01794373  0.90551217  0.60515013     0.27400
C1387       C  0.49149334  0.86985559  0.94409353     0.27400
C1388       C  0.04982002  0.85622852  0.95659500     0.27400
C1389       C  0.42018358  0.90566911  0.53715168     0.36000
C1390       C  0.43085082  0.88717314  0.97867625     0.36000
C1391       C  0.07468691  0.87498462  0.57125207     0.36000
C1392       C  0.08435260  0.84893912  0.01530446     0.36000
C1393       C  0.45997478  0.91637870  0.63031630    -0.21400
C1394       C  0.99722836  0.91268119  0.63921671    -0.21400
C1395       C  0.51029592  0.85830359  0.91024155    -0.21400
C1396       C  0.04682880  0.85031286  0.91798170    -0.21400
C1397       C  0.38547837  0.89763436  0.52355466    -0.22500
C1398       C  0.39212959  0.88465340  0.98697460    -0.22500
C1399       C  0.10739313  0.85124518  0.57171660    -0.22500
C1400       C  0.11275133  0.83366655  0.03662974    -0.22500
C1401       C  0.42908415  0.89410970  0.57381096    -0.17900
C1402       C  0.04898354  0.87921023  0.60327625    -0.17900
C1403       C  0.07952566  0.84014615  0.97722029    -0.17800
C1404       C  0.45253523  0.86538554  0.95065732    -0.17800
H1405       H  0.43623800  0.91888846  0.65037260     0.15100
H1406       H  0.00701580  0.90924669  0.66773864     0.15100
H1407       H  0.49782445  0.84855530  0.88463427     0.15100
H1408       H  0.06643152  0.83520829  0.89842018     0.15100
H1409       H  0.35917201  0.89549083  0.54007963     0.13300
H1410       H  0.37107017  0.87032036  0.97163843     0.13300
H1411       H  0.12483479  0.84563116  0.59547817     0.13300
H1412       H  0.13523501  0.81301655  0.02769346     0.13300
H1413       H  0.00155181  0.90257762  0.54803236     0.26600
H1414       H  0.00750081  0.86557853  0.00062118     0.26600
O1415       O  0.07535016  0.72816500  0.68762695    -0.79700
O1416       O  0.42449806  0.79070504  0.75736733    -0.79700
O1417       O  0.44530409  0.70740896  0.67263776    -0.79700
O1418       O  0.05937918  0.81046424  0.76728768    -0.79700
O1419       O  0.40762737  0.75226612  0.70113229    -0.79800
O1420       O  0.09449179  0.77693074  0.72453258    -0.79700
O1421       O  0.47650040  0.82024572  0.76469704    -0.79700
O1422       O  0.02472391  0.71654527  0.65862852    -0.79700
C1423       C  0.06031440  0.71789192  0.65827532     1.10000
C1424       C  0.44073320  0.82218341  0.76076685     1.09900
C1425       C  0.41417279  0.72936192  0.67333220     1.10000
C1426       C  0.09077477  0.80623850  0.74501115     1.09900
O1427       O  0.08154005  0.72732637  0.77434447    -0.79700
O1428       O  0.42080875  0.69594883  0.74664102    -0.79800
O1429       O  0.04524199  0.65953723  0.71421976    -0.79700
O1430       O  0.46316232  0.75603091  0.82117479    -0.79700
O1431       O  0.42807711  0.72673616  0.77821824    -0.79700
O1432       O  0.07829914  0.70215964  0.74545621    -0.79700
O1433       O  0.04807870  0.74962601  0.82438346    -0.79700
O1434       O  0.46606612  0.65253624  0.73280794    -0.79700
Co1435     Co  0.05002087  0.75153723  0.73319263     1.51500
Co1436     Co  0.45158791  0.74519399  0.72979920     1.51700
Co1437     Co  0.49628987  0.68911091  0.70070079     1.51600
Co1438     Co  0.50989859  0.77829341  0.78991456     1.51500
O1439       O  0.50181492  0.73073631  0.74823839    -1.41600
C1440       C  0.07976226  0.73512068  0.81032939     1.09900
C1441       C  0.43107079  0.65992092  0.74062127     1.10000
C1442       C  0.07548771  0.66873430  0.73017507     1.09900
C1443       C  0.43402489  0.73635235  0.81277051     1.09900
N1444       N  0.25374826  0.88393857  0.60582542    -0.03000
C1445       C  0.27613336  0.90077610  0.63068590    -0.00400
C1446       C  0.31318214  0.88996953  0.62194982    -0.23300
C1447       C  0.31334620  0.86500402  0.59085294    -0.23500
C1448       C  0.27641613  0.86187829  0.58067846    -0.00500
H1449       H  0.33672371  0.89828965  0.63786755     0.13200
H1450       H  0.33736277  0.84840255  0.57836459     0.13300
N1451       N  0.23552940  0.61684837  0.61464367    -0.03000
C1452       C  0.25615012  0.64218242  0.59192526    -0.00400
C1453       C  0.29309238  0.63976052  0.60255866    -0.23300
C1454       C  0.29445073  0.61712976  0.63468514    -0.23500
C1455       C  0.25895122  0.60293335  0.64233345    -0.00500
H1456       H  0.31658205  0.65466603  0.58927920     0.13200
H1457       H  0.31886098  0.61244783  0.65119793     0.13300
N1458       N  0.24953585  0.60191516  0.88719092    -0.03000
C1459       C  0.27108942  0.62035771  0.91225144    -0.00400
C1460       C  0.30653834  0.60351818  0.91089693    -0.23300
C1461       C  0.30746648  0.57469634  0.88313411    -0.23500
C1462       C  0.27297172  0.57611621  0.86681340    -0.00500
H1463       H  0.32922563  0.61219938  0.92811091     0.13200
H1464       H  0.33134723  0.55583219  0.87409313     0.13300
N1465       N  0.25351167  0.87054628  0.87438638    -0.03000
C1466       C  0.26252883  0.87363002  0.83598122    -0.00400
C1467       C  0.27400941  0.83766795  0.82163284    -0.23300
C1468       C  0.27285811  0.81228639  0.85190252    -0.23500
C1469       C  0.26037514  0.83284194  0.88458344    -0.00500
H1470       H  0.28323053  0.83073279  0.79238329     0.13200
H1471       H  0.28085114  0.78194141  0.84997902     0.13300
N1472       N  0.09362328  0.01685519  0.95607212    -0.36200
N1473       N  0.10571506  0.95713523  0.01250749    -0.56700
N1474       N  0.09219963  0.01826295  0.56744189    -0.36200
N1475       N  0.06963750  0.57938784  0.01578580    -0.56700
C1476       C  0.11291736  0.98959588  0.93387997     0.27400
C1477       C  0.09809679  0.55070656  0.93780113     0.27400
C1478       C  0.09305255  0.98668944  0.58898665     0.27400
C1479       C  0.07224354  0.54587727  0.58748924     0.27400
C1480       C  0.12158523  0.93767000  0.98203488     0.36000
C1481       C  0.12222122  0.94150035  0.54261841     0.36000
C1482       C  0.08371515  0.60127060  0.98732382     0.36000
C1483       C  0.06918341  0.60108135  0.54793903     0.36000
C1484       C  0.12543268  0.00559770  0.89983891    -0.21400
C1485       C  0.11618221  0.54354944  0.90249518    -0.21400
C1486       C  0.07218835  0.99319218  0.62298640    -0.21400
C1487       C  0.05786260  0.53076684  0.62149849    -0.21400
C1488       C  0.14357027  0.90645279  0.99368681    -0.22500
C1489       C  0.14681934  0.91130326  0.53123745    -0.22500
C1490       C  0.08694508  0.63875246  0.00006770    -0.22500
C1491       C  0.07666570  0.63887153  0.53843977    -0.22500
C1492       C  0.12831740  0.95403879  0.94600548    -0.17900
C1493       C  0.10579553  0.58519778  0.95650993    -0.17900
C1494       C  0.08110973  0.58429287  0.58209253    -0.17800
C1495       C  0.11803818  0.95584434  0.58010898    -0.17800
H1496       H  0.14380411  0.99287805  0.87713698     0.15100
H1497       H  0.12704934  0.56470563  0.88270521     0.15100
H1498       H  0.06907521  0.97374980  0.64680388     0.15100
H1499       H  0.04242956  0.54635705  0.64460738     0.15100
H1500       H  0.16022538  0.88537237  0.97648315     0.13300
H1501       H  0.16497455  0.89356199  0.54815960     0.13300
H1502       H  0.10028939  0.66197984  0.98465333     0.13300
H1503       H  0.08146600  0.66206362  0.55797141     0.13300
H1504       H  0.08418561  0.01443509  0.98444433     0.26600
H1505       H  0.11042228  0.02294914  0.54366807     0.26600
N1506       N  0.12699223  0.87179433  0.74549195    -0.03000
C1507       C  0.12425290  0.83306786  0.73877542    -0.00400
C1508       C  0.15844157  0.81934379  0.72173778    -0.23300
C1509       C  0.18242417  0.84959110  0.71900344    -0.23500
C1510       C  0.16304079  0.88221195  0.73375999    -0.00500
H1511       H  0.16566661  0.78993668  0.71276777     0.13200
H1512       H  0.21166771  0.84742834  0.70825940     0.13300
N1513       N  0.38223372  0.60370135  0.75402423    -0.03000
C1514       C  0.36354683  0.57878937  0.73160277    -0.00400
C1515       C  0.37341291  0.58701654  0.69400301    -0.23300
C1516       C  0.39743253  0.61789212  0.69368509    -0.23500
C1517       C  0.40259229  0.62865607  0.73115499    -0.00500
H1518       H  0.36491129  0.57146216  0.66923924     0.13200
H1519       H  0.41064449  0.63053940  0.66844704     0.13300
N1520       N  0.11600245  0.60810223  0.74275901    -0.03000
C1521       C  0.15438239  0.59982862  0.74167229    -0.00400
C1522       C  0.17291937  0.63201991  0.72844712    -0.23300
C1523       C  0.14595584  0.65881637  0.71817016    -0.23500
C1524       C  0.11116350  0.64348919  0.72676228    -0.00500
H1525       H  0.20300723  0.63575670  0.72530509     0.13200
H1526       H  0.15116677  0.68749462  0.70765759     0.13300
N1527       N  0.38695467  0.87688026  0.76805665    -0.03000
C1528       C  0.36852680  0.89611990  0.74041310    -0.00400
C1529       C  0.39044468  0.89574750  0.70748026    -0.23300
C1530       C  0.42210686  0.87213532  0.71311890    -0.23500
C1531       C  0.41972202  0.85999842  0.75064667    -0.00500
H1532       H  0.38361495  0.91269020  0.68305155     0.13200
H1533       H  0.44362094  0.86289032  0.69152882     0.13300
N1534       N  0.97498146  0.58013277  0.91610394    -0.36200
N1535       N  0.02158132  0.51804723  0.87443900    -0.56700
N1536       N  0.96758887  0.95568550  0.88981483    -0.36200
N1537       N  0.41720222  0.51521541  0.91710767    -0.56700
C1538       C  0.99845726  0.60261474  0.89548257     0.27400
C1539       C  0.44169740  0.60045073  0.92111875     0.27400
C1540       C  0.99005058  0.93932511  0.86143169     0.27400
C1541       C  0.43540963  0.93558703  0.89150095     0.27400
C1542       C  0.04096824  0.54966346  0.86487755     0.36000
C1543       C  0.03920033  0.98873221  0.85403366     0.36000
C1544       C  0.39931740  0.54787779  0.92981635     0.36000
C1545       C  0.39297650  0.98650043  0.92073666     0.36000
C1546       C  0.98315680  0.64000310  0.89501217    -0.21400
C1547       C  0.44714236  0.63858985  0.91135704    -0.21400
C1548       C  0.97432202  0.90650030  0.84813448    -0.21400
C1549       C  0.44142138  0.90286626  0.86873911    -0.21400
C1550       C  0.07185086  0.53886172  0.84052740    -0.22500
C1551       C  0.07182394  0.00066726  0.83524191    -0.22500
C1552       C  0.36348935  0.53902636  0.94451666    -0.22500
C1553       C  0.35893603  0.00032780  0.93744648    -0.22500
C1554       C  0.02702293  0.58853657  0.86893059    -0.17900
C1555       C  0.40794727  0.58323182  0.91262518    -0.17900
C1556       C  0.39843860  0.95233445  0.89948913    -0.17800
C1557       C  0.02306994  0.95396625  0.84455411    -0.17800
H1558       H  0.99391257  0.66411902  0.87893409     0.15100
H1559       H  0.42519125  0.66090229  0.90880693     0.15100
H1560       H  0.98448991  0.88750870  0.82486463     0.15100
H1561       H  0.42228140  0.88095261  0.86256355     0.15100
H1562       H  0.09406357  0.55602810  0.82896063     0.13300
H1563       H  0.09260308  0.98437830  0.81730535     0.13300
H1564       H  0.34189951  0.55848381  0.95722967     0.13300
H1565       H  0.33314280  0.98474040  0.94209097     0.13300
H1566       H  0.97824527  0.55045130  0.91928736     0.26600
H1567       H  0.97340153  0.98019287  0.90520567     0.26600
O1568       O  0.25804264  0.90053327  0.69633219    -0.79700
O1569       O  0.30955521  0.53885734  0.72159612    -0.79700
O1570       O  0.24205351  0.54177198  0.67424368    -0.79700
O1571       O  0.33631030  0.95778554  0.75564894    -0.79700
O1572       O  0.25515006  0.59177431  0.71124920    -0.79800
O1573       O  0.30214537  0.90902122  0.74477823    -0.79700
O1574       O  0.33016911  0.53572582  0.77750933    -0.79700
O1575       O  0.25394144  0.95755837  0.66899058    -0.79700
C1576       C  0.26159131  0.92057957  0.66675876     1.10000
C1577       C  0.33409283  0.54902053  0.74402211     1.09900
C1578       C  0.25024319  0.57808101  0.67774081     1.10000
C1579       C  0.33415320  0.92241642  0.74719752     1.09900
O1580       O  0.24429898  0.90971996  0.77984710    -0.79700
O1581       O  0.20518200  0.56220656  0.76574301    -0.79800
O1582       O  0.18166861  0.94865478  0.71816945    -0.79700
O1583       O  0.26872053  0.51802260  0.83175458    -0.79700
O1584       O  0.26834697  0.57084988  0.79649934    -0.79700
O1585       O  0.21485440  0.91533285  0.75785330    -0.79700
O1586       O  0.28203426  0.93825649  0.81936338    -0.79700
O1587       O  0.17430613  0.53312698  0.72345690    -0.79700
Co1588     Co  0.25768173  0.94179425  0.73197766     1.51500
Co1589     Co  0.25608539  0.54656412  0.74346796     1.51700
Co1590     Co  0.21760021  0.49456904  0.70436343     1.51600
Co1591     Co  0.29951559  0.98754042  0.79248129     1.51500
O1592       O  0.25125902  0.99205169  0.75788907    -1.41600
C1593       C  0.26152459  0.90993447  0.81148688     1.09900
C1594       C  0.17655818  0.56166829  0.74621361     1.10000
C1595       C  0.18486591  0.91882092  0.73954600     1.09900
C1596       C  0.26688992  0.55452551  0.82987913     1.09900
C1597       C  0.35849089  0.88892639  0.83263873    -0.25900
C1598       C  0.38521831  0.89823065  0.80347456    -0.13900
C1599       C  0.39839405  0.93640841  0.80347186     0.36700
C1600       C  0.38618467  0.96186164  0.83312296    -0.25300
C1601       C  0.37245594  0.94685486  0.86776112    -0.14600
C1602       C  0.35306757  0.91252002  0.86557825     0.37800
N1603       N  0.32559647  0.90359282  0.89496957    -0.88800
H1604       H  0.34198538  0.86400837  0.82899878     0.18900
H1605       H  0.39350636  0.99149670  0.83179426     0.18900
N1606       N  0.42281050  0.94955970  0.77273459    -0.87800
H1607       H  0.30557249  0.92652422  0.89556732     0.36300
H1608       H  0.33837322  0.90375602  0.92111267     0.41300
H1609       H  0.40974691  0.97375700  0.76071321     0.41000
H1610       H  0.44775003  0.95833598  0.78429940     0.35900
C1611       C  0.02685153  0.60031189  0.80067743    -0.25900
C1612       C  0.03790430  0.61320189  0.83635705    -0.13900
C1613       C  0.07227412  0.63131075  0.83826608     0.36700
C1614       C  0.09967200  0.62540043  0.80859792    -0.25300
C1615       C  0.09169829  0.60377970  0.77582700    -0.14600
C1616       C  0.05431604  0.59297626  0.77118998     0.37800
N1617       N  0.04445934  0.57488397  0.73646272    -0.88800
H1618       H  0.99866124  0.59030531  0.79749525     0.18900
H1619       H  0.12658035  0.63892274  0.80992867     0.18900
N1620       N  0.07966404  0.65466719  0.87049933    -0.87800
H1621       H  0.02240723  0.59124470  0.72511364     0.36300
H1622       H  0.03387962  0.54798380  0.74330539     0.41300
H1623       H  0.06034204  0.67824277  0.87122399     0.41000
H1624       H  0.07376549  0.63884551  0.89517559     0.35900
C1625       C  0.37513275  0.61616658  0.85908274    -0.25900
C1626       C  0.40038485  0.58698802  0.87087398    -0.13900
C1627       C  0.42079422  0.56454764  0.84202239     0.36700
C1628       C  0.41424645  0.57065575  0.80371426    -0.25300
C1629       C  0.38688062  0.59760137  0.79333659    -0.14600
C1630       C  0.36443156  0.61781805  0.82114353     0.37800
N1631       N  0.33090378  0.63962760  0.81148297    -0.88800
H1632       H  0.36236945  0.63630896  0.87979210     0.18900
H1633       H  0.43107247  0.55464961  0.78173028     0.18900
N1634       N  0.45126056  0.53866425  0.85059543    -0.87800
H1635       H  0.30756469  0.62902796  0.82677978     0.36300
H1636       H  0.32554070  0.63678126  0.78264449     0.41300
H1637       H  0.47471930  0.54762389  0.83453184     0.41000
H1638       H  0.44691602  0.51133994  0.83979465     0.35900
C1639       C  0.06084676  0.89665696  0.82669906    -0.25900
C1640       C  0.04319738  0.93020857  0.81443084    -0.13900
C1641       C  0.05011005  0.94295329  0.77651257     0.36700
C1642       C  0.07933369  0.92454807  0.75403140    -0.25300
C1643       C  0.09952410  0.89306792  0.76854727    -0.14600
C1644       C  0.08930207  0.87832493  0.80433895     0.37800
N1645       N  0.10940438  0.84522602  0.81808726    -0.88800
H1646       H  0.05508689  0.88712983  0.85532596     0.18900
H1647       H  0.08604175  0.93460853  0.72552683     0.18900
N1648       N  0.02974204  0.97533898  0.76114671    -0.87800
H1649       H  0.09856277  0.83781716  0.84500285     0.36300
H1650       H  0.13740308  0.85302333  0.82026289     0.41300
H1651       H  0.00883224  0.98643130  0.78081552     0.41000
H1652       H  0.01556499  0.96532086  0.73783763     0.35900
C1653       C  0.19740025  0.93820354  0.93996675    -0.25900
C1654       C  0.16190024  0.93763400  0.92348514    -0.13900
C1655       C  0.15836907  0.91760071  0.88913862     0.36700
C1656       C  0.18961730  0.89708128  0.87306485    -0.25300
C1657       C  0.22365571  0.89419708  0.89169847    -0.14600
C1658       C  0.22729066  0.91393269  0.92610850     0.37800
N1659       N  0.25969863  0.90757232  0.94830204    -0.88800
H1660       H  0.20017465  0.95321672  0.96675954     0.18900
H1661       H  0.18709317  0.88180994  0.84638864     0.18900
N1662       N  0.12370459  0.91706801  0.87007540    -0.87800
H1663       H  0.25043376  0.89597053  0.97445051     0.36300
H1664       H  0.27084897  0.93437505  0.95407799     0.41300
H1665       H  0.10125638  0.93132736  0.88547237     0.41000
H1666       H  0.12819732  0.93188998  0.84450288     0.35900
C1667       C  0.15195474  0.62399805  0.92033676    -0.25900
C1668       C  0.14576989  0.59663678  0.94901964    -0.13900
C1669       C  0.17525278  0.56832635  0.95525867     0.36700
C1670       C  0.20900555  0.56877519  0.93279182    -0.25300
C1671       C  0.21248839  0.59336319  0.90162432    -0.14600
C1672       C  0.18285658  0.61884005  0.89404012     0.37800
N1673       N  0.18349730  0.63768783  0.85827614    -0.88800
H1674       H  0.13047604  0.64573690  0.91522489     0.18900
H1675       H  0.23258908  0.54928003  0.93877990     0.18900
N1676       N  0.16857220  0.53531066  0.97900291    -0.87800
H1677       H  0.18354008  0.61636884  0.83703151     0.36300
H1678       H  0.20961185  0.65070935  0.85487037     0.41300
H1679       H  0.16268267  0.54388674  0.00701528     0.41000
H1680       H  0.19294206  0.51738228  0.97936413     0.35900
C1681       C  0.17147189  0.59702273  0.63696567    -0.25900
C1682       C  0.19827453  0.60377495  0.60723455    -0.13900
C1683       C  0.18785161  0.59801040  0.56976259     0.36700
C1684       C  0.14955467  0.59515871  0.56261854    -0.25300
C1685       C  0.12131760  0.59177323  0.59226150    -0.14600
C1686       C  0.13365095  0.58962741  0.63003106     0.37800
N1687       N  0.10801697  0.58469976  0.66241240    -0.88800
H1688       H  0.17986080  0.59781561  0.66570556     0.18900
H1689       H  0.14213768  0.59528797  0.53344023     0.18900
N1690       N  0.21642661  0.59175717  0.53953717    -0.87800
H1691       H  0.10587700  0.55529761  0.66768732     0.36300
H1692       H  0.08152117  0.59777871  0.65792848     0.41300
H1693       H  0.20787418  0.60608928  0.51519769     0.41000
H1694       H  0.21791928  0.56231984  0.53295291     0.35900
C1695       C  0.18528781  0.96339706  0.58615036    -0.25900
C1696       C  0.15159238  0.94910313  0.60268978    -0.13900
C1697       C  0.15359607  0.91556294  0.62447955     0.36700
C1698       C  0.18686201  0.89222330  0.62252740    -0.25300
C1699       C  0.21825506  0.90276757  0.59978532    -0.14600
C1700       C  0.21807904  0.93956947  0.58290563     0.37800
N1701       N  0.25133519  0.95251372  0.56242114    -0.88800
H1702       H  0.18434145  0.98987927  0.56990999     0.18900
H1703       H  0.18864217  0.86593492  0.63885951     0.18900
N1704       N  0.12119224  0.90453461  0.64702326    -0.87800
H1705       H  0.25908833  0.97818320  0.57517401     0.36300
H1706       H  0.24429589  0.95865685  0.53447454     0.41300
H1707       H  0.11562405  0.92616596  0.66757092     0.41000
H1708       H  0.12819579  0.87950310  0.66180667     0.35900
C1709       C  0.44315793  0.76275600  0.91479290    -0.30700
C1710       C  0.41030699  0.76740005  0.89546196    -0.13900
C1711       C  0.39033132  0.80281475  0.89502597     0.36700
C1712       C  0.40376753  0.83405086  0.91409587    -0.25300
C1713       C  0.43715479  0.83058665  0.93319500    -0.14600
C1714       C  0.45667637  0.79393485  0.93421732     0.37800
N1715       N  0.48969928  0.78782083  0.95550083    -0.88800
H1716       H  0.45766113  0.73470031  0.91554408     0.18900
H1717       H  0.38889088  0.86148639  0.91268583     0.18900
N1718       N  0.35562478  0.80601844  0.87599701    -0.87800
H1719       H  0.48414954  0.76571604  0.97485714     0.36300
H1720       H  0.51172039  0.77784542  0.93643193     0.41300
H1721       H  0.36220642  0.80448837  0.84661402     0.41000
H1722       H  0.34126424  0.83200252  0.88309624     0.35900
C1723       C  0.12839065  0.81957297  0.92849540    -0.25900
C1724       C  0.10307629  0.80928822  0.95809403    -0.13900
C1725       C  0.08988363  0.77168429  0.95954616     0.36700
C1726       C  0.09511705  0.74766109  0.92752095    -0.25300
C1727       C  0.11543263  0.76018461  0.89508377    -0.14600
C1728       C  0.13481669  0.79540101  0.89693054     0.37800
N1729       N  0.16157221  0.80721597  0.86745366    -0.88800
H1730       H  0.13938165  0.84822000  0.92757475     0.18900
H1731       H  0.08489683  0.71860808  0.92850091     0.18900
N1732       N  0.07146394  0.75794754  0.99367141    -0.87800
H1733       H  0.16097997  0.79050989  0.84271114     0.36300
H1734       H  0.18867676  0.80437431  0.87767767     0.41300
H1735       H  0.04568465  0.74672827  0.98684367     0.41000
H1736       H  0.08828597  0.73500818  0.00337974     0.35900
C1737       C  0.39860440  0.84822743  0.62029975    -0.25900
C1738       C  0.41881715  0.85367357  0.58573968    -0.13900
C1739       C  0.42710019  0.82052376  0.56228689     0.36700
C1740       C  0.41246726  0.78462825  0.57220557    -0.25300
C1741       C  0.38981279  0.78074690  0.60540375    -0.14600
C1742       C  0.38319467  0.81267076  0.63006242     0.37800
N1743       N  0.35926570  0.80932957  0.66407033    -0.88800
H1744       H  0.39276062  0.87243297  0.63835141     0.18900
H1745       H  0.41841812  0.75980143  0.55361585     0.18900
N1746       N  0.45028590  0.82263455  0.52812512    -0.87800
H1747       H  0.33598372  0.82856052  0.66262504     0.36300
H1748       H  0.37443385  0.81746667  0.68733847     0.41300
H1749       H  0.43397696  0.81239075  0.50661971     0.41000
H1750       H  0.47334075  0.80320106  0.53010926     0.35900
C1751       C  0.09059568  0.79610607  0.63582658    -0.25900
C1752       C  0.08237101  0.77330642  0.60380276    -0.13900
C1753       C  0.04654603  0.78012166  0.58797283     0.36700
C1754       C  0.02634001  0.81465432  0.59664411    -0.25300
C1755       C  0.04117733  0.84162654  0.62089122    -0.14600
C1756       C  0.06705487  0.82838393  0.64623651     0.37800
N1757       N  0.06694924  0.84618713  0.68292993    -0.88800
H1758       H  0.11339960  0.78718503  0.65356380     0.18900
H1759       H  0.00271912  0.82324923  0.58019382     0.18900
N1760       N  0.02954902  0.75249208  0.56413969    -0.87800
H1761       H  0.04096497  0.84032738  0.69698234     0.36300
H1762       H  0.06639966  0.87606186  0.68012803     0.41300
H1763       H  0.00425617  0.74444938  0.57821151     0.41000
H1764       H  0.04648364  0.72733521  0.56049110     0.35900
O1765       O  0.74684587  0.30189295  0.06819950    -0.79700
O1766       O  0.72848108  0.22578237  0.39174842    -0.79700
O1767       O  0.78942024  0.31155124  0.44242264    -0.79700
O1768       O  0.67039029  0.23746981  0.02541824    -0.79700
O1769       O  0.73258605  0.29151678  0.43373732    -0.79800
O1770       O  0.69203285  0.25467934  0.08057375    -0.79700
O1771       O  0.68325663  0.22440378  0.43844762    -0.79700
O1772       O  0.78175713  0.32617367  0.02144230    -0.79700
C1773       C  0.76598838  0.32918063  0.05486514     1.10000
C1774       C  0.69355267  0.22360500  0.40153527     1.09900
C1775       C  0.75884870  0.31430786  0.42421894     1.10000
C1776       C  0.66517344  0.24154357  0.06239240     1.09900
O1777       O  0.75295223  0.20964615  0.07166412    -0.79700
O1778       O  0.79935056  0.24790677  0.40979012    -0.79800
O1779       O  0.82864025  0.25906020  0.03908320    -0.79700
O1780       O  0.72889297  0.15720721  0.45738321    -0.79700
O1781       O  0.77761262  0.18482279  0.43454359    -0.79700
O1782       O  0.77740535  0.24009398  0.07396742    -0.79700
O1783       O  0.72405522  0.16936813  0.03607843    -0.79700
O1784       O  0.83872541  0.24328749  0.45582053    -0.79700
Co1785     Co  0.73188982  0.25419375  0.04093987     1.51500
Co1786     Co  0.75127844  0.23654363  0.43821854     1.51700
Co1787     Co  0.80548096  0.28089659  0.49015130     1.51600
Co1788     Co  0.70870486  0.20286148  0.99004572     1.51500
O1789       O  0.76069631  0.24055304  0.99247227    -1.41600
C1790       C  0.74278045  0.17512300  0.06565170     1.09900
C1791       C  0.83214057  0.23929651  0.42045127     1.10000
C1792       C  0.81362065  0.24654887  0.07076079     1.09900
C1793       C  0.75890441  0.15518418  0.43653279     1.09900
N1794       N  0.59956111  0.23538662  0.10055202    -0.03000
C1795       C  0.63397778  0.22184028  0.08462381    -0.00400
C1796       C  0.64242082  0.18697546  0.10104074    -0.23300
C1797       C  0.61293239  0.17897502  0.12650772    -0.23500
C1798       C  0.58625383  0.20833726  0.12481053    -0.00500
H1799       H  0.66956428  0.17198613  0.09863897     0.13200
H1800       H  0.61345853  0.15793750  0.14863135     0.13300
N1801       N  0.87339788  0.24457049  0.11444997    -0.03000
C1802       C  0.83731337  0.23514893  0.10510458    -0.00400
C1803       C  0.82250289  0.21283598  0.13438312    -0.23300
C1804       C  0.85072818  0.20435630  0.15893266    -0.23500
C1805       C  0.88236930  0.22367818  0.14636079    -0.00500
H1806       H  0.79338957  0.20460426  0.13849624     0.13200
H1807       H  0.84726647  0.18865081  0.18535524     0.13300
N1808       N  0.62885053  0.23185253  0.36786107    -0.03000
C1809       C  0.61698420  0.22615373  0.33109140    -0.00400
C1810       C  0.64903935  0.21430927  0.30883230    -0.23300
C1811       C  0.67962296  0.21278168  0.33134989    -0.23500
C1812       C  0.66651719  0.22082251  0.36849472    -0.00500
H1813       H  0.65085225  0.20972779  0.27831003     0.13200
H1814       H  0.70875159  0.20676543  0.32126233     0.13300
N1815       N  0.89496927  0.23504373  0.37856191    -0.03000
C1816       C  0.90316436  0.22401067  0.34144237    -0.00400
C1817       C  0.87192219  0.20632681  0.32875266    -0.23300
C1818       C  0.84499013  0.20569624  0.35832396    -0.23500
C1819       C  0.85953984  0.22300450  0.38936100    -0.00500
H1820       H  0.86728019  0.19859167  0.29954630     0.13200
H1821       H  0.81592949  0.19745126  0.35616570     0.13300
N1822       N  0.49460927  0.40891532  0.07614226    -0.36200
N1823       N  0.94696552  0.40364334  0.00830739    -0.56700
N1824       N  0.51587695  0.36896479  0.47238019    -0.36200
N1825       N  0.56241643  0.37494093  0.03572569    -0.56700
C1826       C  0.95895413  0.41135639  0.09148447     0.27400
C1827       C  0.51797824  0.40541879  0.10511078     0.27400
C1828       C  0.99146416  0.36986882  0.44416731     0.27400
C1829       C  0.54975131  0.35618584  0.45670373     0.27400
C1830       C  0.92019903  0.40569367  0.03714962     0.36000
C1831       C  0.93082221  0.38706810  0.47871272     0.36000
C1832       C  0.57470733  0.37488416  0.07123706     0.36000
C1833       C  0.58426299  0.34887991  0.51538429     0.36000
C1834       C  0.96004131  0.41645322  0.13030620    -0.21400
C1835       C  0.49730694  0.41271230  0.13917814    -0.21400
C1836       C  0.01029119  0.35840603  0.41030573    -0.21400
C1837       C  0.54680579  0.35037528  0.41807243    -0.21400
C1838       C  0.88549417  0.39769736  0.02353029    -0.22500
C1839       C  0.89211420  0.38449817  0.48702739    -0.22500
C1840       C  0.60741234  0.35114932  0.07169269    -0.22500
C1841       C  0.61269140  0.33366798  0.53669751    -0.22500
C1842       C  0.92905329  0.39416362  0.07383858    -0.17900
C1843       C  0.54898803  0.37908800  0.10324977    -0.17900
C1844       C  0.57939493  0.34001434  0.47733472    -0.17800
C1845       C  0.95252890  0.36532238  0.45069786    -0.17800
H1846       H  0.93632333  0.41907568  0.15037966     0.15100
H1847       H  0.50712801  0.40936314  0.16769649     0.15100
H1848       H  0.99784078  0.34871212  0.38466817     0.15100
H1849       H  0.56641476  0.33529605  0.39850145     0.15100
H1850       H  0.85918845  0.39548572  0.04005420     0.13300
H1851       H  0.87107135  0.37010920  0.47171362     0.13300
H1852       H  0.62484355  0.34552140  0.09546423     0.13300
H1853       H  0.63515814  0.31299034  0.52778550     0.13300
H1854       H  0.50151669  0.40227226  0.04804212     0.26600
H1855       H  0.50742157  0.36553668  0.50072017     0.26600
O1856       O  0.57536980  0.22813196  0.18762733    -0.79700
O1857       O  0.92451434  0.29077531  0.25732413    -0.79700
O1858       O  0.94532140  0.20742665  0.17262519    -0.79700
O1859       O  0.55937308  0.31045002  0.26735324    -0.79700
O1860       O  0.90767504  0.25233154  0.20108727    -0.79800
O1861       O  0.59449618  0.27694285  0.22457855    -0.79700
O1862       O  0.97652250  0.32026237  0.26482734    -0.79700
O1863       O  0.52474070  0.21655041  0.15862557    -0.79700
C1864       C  0.56033155  0.21785065  0.15827496     1.10000
C1865       C  0.94076263  0.32223546  0.26085545     1.09900
C1866       C  0.91420409  0.22940384  0.17330536     1.10000
C1867       C  0.59075986  0.30624719  0.24506762     1.09900
O1868       O  0.58156313  0.22732976  0.27437748    -0.79700
O1869       O  0.92080507  0.19597554  0.24656462    -0.79800
O1870       O  0.54527968  0.15954337  0.21423079    -0.79700
O1871       O  0.96319760  0.25596548  0.32116915    -0.79700
O1872       O  0.92807379  0.22677515  0.27817216    -0.79700
O1873       O  0.57829914  0.20216301  0.24551402    -0.79700
O1874       O  0.54809497  0.24957969  0.32442759    -0.79700
O1875       O  0.96606475  0.15254667  0.23277640    -0.79700
Co1876     Co  0.55003792  0.25153148  0.23320197     1.51500
Co1877     Co  0.95161192  0.24523694  0.22977387     1.51700
Co1878     Co  0.99630998  0.18911568  0.20068994     1.51600
Co1879     Co  0.00991704  0.27825857  0.28995930     1.51500
O1880       O  0.00182503  0.23074196  0.24823019    -1.41600
C1881       C  0.57978722  0.23510414  0.31036991     1.09900
C1882       C  0.93106508  0.15994062  0.24056601     1.10000
C1883       C  0.57551455  0.16874170  0.23021738     1.09900
C1884       C  0.93404809  0.23632856  0.31273503     1.09900
N1885       N  0.75373077  0.38384830  0.10591094    -0.03000
C1886       C  0.77613326  0.40065255  0.13077777    -0.00400
C1887       C  0.81317941  0.38983164  0.12203909    -0.23300
C1888       C  0.81333065  0.36490445  0.09091485    -0.23500
C1889       C  0.77639260  0.36179860  0.08074331    -0.00500
H1890       H  0.83673314  0.39811596  0.13796554     0.13200
H1891       H  0.83734834  0.34831960  0.07840404     0.13300
N1892       N  0.73566382  0.11682333  0.11469776    -0.03000
C1893       C  0.75627648  0.14211817  0.09193866    -0.00400
C1894       C  0.79323306  0.13966479  0.10253577    -0.23300
C1895       C  0.79459618  0.11705372  0.13468477    -0.23500
C1896       C  0.75908394  0.10289918  0.14237932    -0.00500
H1897       H  0.81672653  0.15454509  0.08922875     0.13200
H1898       H  0.81902030  0.11235432  0.15117145     0.13300
N1899       N  0.74959675  0.10188924  0.38724918    -0.03000
C1900       C  0.77115192  0.12032734  0.41231312    -0.00400
C1901       C  0.80657930  0.10342491  0.41101278    -0.23300
C1902       C  0.80750274  0.07459167  0.38326176    -0.23500
C1903       C  0.77301807  0.07604535  0.36690909    -0.00500
H1904       H  0.82926897  0.11209654  0.42822478     0.13200
H1905       H  0.83138435  0.05571447  0.37424575     0.13300
N1906       N  0.75349376  0.37052820  0.37436315    -0.03000
C1907       C  0.76252557  0.37363052  0.33596572    -0.00400
C1908       C  0.77412378  0.33770869  0.32160647    -0.23300
C1909       C  0.77303720  0.31232307  0.35186685    -0.23500
C1910       C  0.76046588  0.33283843  0.38454553    -0.00500
H1911       H  0.78340967  0.33081520  0.29236418     0.13200
H1912       H  0.78114154  0.28200442  0.34994198     0.13300
N1913       N  0.59358424  0.51692777  0.45595200    -0.36200
N1914       N  0.60562561  0.45719242  0.51244313    -0.56700
N1915       N  0.59240708  0.51830677  0.06749604    -0.36200
N1916       N  0.56957600  0.07937294  0.51569355    -0.56700
C1917       C  0.61293126  0.48966625  0.43380466     0.27400
C1918       C  0.59810508  0.05078879  0.43769472     0.27400
C1919       C  0.59313606  0.48671041  0.08900491     0.27400
C1920       C  0.57240253  0.04591792  0.08751541     0.27400
C1921       C  0.62143243  0.43769454  0.48196051     0.36000
C1922       C  0.62227437  0.44143984  0.04269681     0.36000
C1923       C  0.58362903  0.10130750  0.48725580     0.36000
C1924       C  0.56933555  0.10112350  0.04801320     0.36000
C1925       C  0.62553885  0.50566782  0.39979374    -0.21400
C1926       C  0.61627174  0.04362615  0.40242424    -0.21400
C1927       C  0.57216613  0.49320287  0.12294694    -0.21400
C1928       C  0.55788795  0.03080051  0.12146071    -0.21400
C1929       C  0.64337432  0.40644516  0.49360835    -0.22500
C1930       C  0.64690923  0.41125914  0.03133676    -0.22500
C1931       C  0.58676854  0.13878955  0.50004048    -0.22500
C1932       C  0.57688176  0.13888730  0.03847545    -0.22500
C1933       C  0.62826157  0.45408314  0.44595244    -0.17900
C1934       C  0.60574454  0.08529844  0.45642105    -0.17900
C1935       C  0.58126247  0.08432986  0.08216055    -0.17800
C1936       C  0.61808809  0.45583330  0.08016763    -0.17800
H1937       H  0.64395328  0.49293945  0.37712961     0.15100
H1938       H  0.62716094  0.06478027  0.38264355     0.15100
H1939       H  0.56894414  0.47373655  0.14673217     0.15100
H1940       H  0.54241744  0.04639960  0.14454167     0.15100
H1941       H  0.65999587  0.38534527  0.47640281     0.13300
H1942       H  0.66503520  0.39351428  0.04828434     0.13300
H1943       H  0.60008544  0.16205390  0.48466038     0.13300
H1944       H  0.58173491  0.16208561  0.05797478     0.13300
H1945       H  0.58405753  0.51448569  0.48429658     0.26600
H1946       H  0.61068320  0.52298163  0.04376163     0.26600
N1947       N  0.62693613  0.37182984  0.24556002    -0.03000
C1948       C  0.62420655  0.33310311  0.23882679    -0.00400
C1949       C  0.65837851  0.31939361  0.22175066    -0.23300
C1950       C  0.68235188  0.34964086  0.21900918    -0.23500
C1951       C  0.66298191  0.38225498  0.23380282    -0.00500
H1952       H  0.66560399  0.28998922  0.21277125     0.13200
H1953       H  0.71158656  0.34747440  0.20824245     0.13300
N1954       N  0.88219486  0.10375749  0.25403916    -0.03000
C1955       C  0.86354753  0.07877895  0.23165380    -0.00400
C1956       C  0.87344859  0.08691785  0.19404508    -0.23300
C1957       C  0.89746159  0.11780011  0.19367950    -0.23500
C1958       C  0.90258564  0.12865537  0.23113329    -0.00500
H1959       H  0.86497856  0.07129504  0.16930922     0.13200
H1960       H  0.91069780  0.13038709  0.16842229     0.13300
N1961       N  0.61607841  0.10812385  0.24278575    -0.03000
C1962       C  0.65445641  0.09985268  0.24169052    -0.00400
C1963       C  0.67298881  0.13207487  0.22853519    -0.23300
C1964       C  0.64601447  0.15888023  0.21828476    -0.23500
C1965       C  0.61122080  0.14352149  0.22681593    -0.00500
H1966       H  0.70307697  0.13583056  0.22542888     0.13200
H1967       H  0.65121752  0.18758220  0.20783178     0.13300
N1968       N  0.88693783  0.37690865  0.26818412    -0.03000
C1969       C  0.86854528  0.39611436  0.24048797    -0.00400
C1970       C  0.89060326  0.39589410  0.20763946    -0.23300
C1971       C  0.92231172  0.37238524  0.21336082    -0.23500
C1972       C  0.91979537  0.36012322  0.25084474    -0.00500
H1973       H  0.88382633  0.41285282  0.18320263     0.13200
H1974       H  0.94393370  0.36325909  0.19183230     0.13300
N1975       N  0.47501129  0.08023722  0.41608434    -0.36200
N1976       N  0.52156639  0.01812076  0.37446546    -0.56700
N1977       N  0.46749369  0.45579716  0.38985553    -0.36200
N1978       N  0.91713872  0.01537608  0.41691821    -0.56700
C1979       C  0.49855811  0.10270539  0.39553090     0.27400
C1980       C  0.94174581  0.10059517  0.42106182     0.27400
C1981       C  0.48994375  0.43941832  0.36147392     0.27400
C1982       C  0.93530810  0.43569943  0.39157492     0.27400
C1983       C  0.54099790  0.04970942  0.36489927     0.36000
C1984       C  0.53915362  0.48877627  0.35407023     0.36000
C1985       C  0.89938377  0.04802822  0.42980648     0.36000
C1986       C  0.89297027  0.48664300  0.42082469     0.36000
C1987       C  0.48330769  0.14011443  0.39506830    -0.21400
C1988       C  0.94724479  0.13872559  0.41130382    -0.21400
C1989       C  0.47419626  0.40659605  0.34819631    -0.21400
C1990       C  0.94130257  0.40297508  0.36881842    -0.21400
C1991       C  0.57185806  0.03886467  0.34053769    -0.22500
C1992       C  0.57179062  0.50066778  0.33527037    -0.22500
C1993       C  0.86367037  0.03918468  0.44484375    -0.22500
C1994       C  0.85906424  0.50046076  0.43785125    -0.22500
C1995       C  0.52712856  0.08860759  0.36899019    -0.17900
C1996       C  0.90796206  0.08340004  0.41262718    -0.17900
C1997       C  0.89833861  0.45244554  0.39961058    -0.17800
C1998       C  0.52298561  0.45402287  0.34460236    -0.17800
H1999       H  0.49413662  0.16423359  0.37904616     0.15100
H2000       H  0.92532373  0.16106140  0.40872171     0.15100
H2001       H  0.48435426  0.38758986  0.32493436     0.15100
H2002       H  0.92215295  0.38106827  0.36266024     0.15100
H2003       H  0.59408913  0.05599834  0.32895559     0.13300
H2004       H  0.59254390  0.48435259  0.31732796     0.13300
H2005       H  0.84218017  0.05865896  0.45772506     0.13300
H2006       H  0.83332638  0.48484691  0.44279132     0.13300
H2007       H  0.47823210  0.05055203  0.41926042     0.26600
H2008       H  0.47333450  0.48029838  0.40524396     0.26600
O2009       O  0.75796538  0.40047401  0.19640036    -0.79700
O2010       O  0.80956604  0.03884235  0.22168057    -0.79700
O2011       O  0.74223630  0.04171433  0.17426713    -0.79700
O2012       O  0.83630287  0.45776374  0.25565775    -0.79700
O2013       O  0.75514675  0.09175242  0.21131115    -0.79800
O2014       O  0.80214024  0.40899311  0.24478398    -0.79700
O2015       O  0.83020511  0.03570053  0.27757990    -0.79700
O2016       O  0.75403951  0.45749477  0.16904095    -0.79700
C2017       C  0.76160240  0.42050102  0.16682604     1.10000
C2018       C  0.83410699  0.04900996  0.24409808     1.09900
C2019       C  0.75034790  0.07804308  0.17778400     1.10000
C2020       C  0.83414858  0.42239417  0.24721419     1.09900
O2021       O  0.74425093  0.40972938  0.27988355    -0.79700
O2022       O  0.70518524  0.06214551  0.26580632    -0.79800
O2023       O  0.68169759  0.44867012  0.21817199    -0.79700
O2024       O  0.76878673  0.01796454  0.33182276    -0.79700
O2025       O  0.76836356  0.07080635  0.29658781    -0.79700
O2026       O  0.71480954  0.41534585  0.25791283    -0.79700
O2027       O  0.78206225  0.43821868  0.31935962    -0.79700
O2028       O  0.67440640  0.03317983  0.22337139    -0.79700
Co2029     Co  0.75765198  0.44176247  0.23201095     1.51500
Co2030     Co  0.75609677  0.04654091  0.24354296     1.51700
Co2031     Co  0.71768616  0.99455274  0.20436128     1.51600
Co2032     Co  0.79954868  0.48750305  0.29251633     1.51500
O2033       O  0.75128959  0.49202503  0.25792725    -1.41600
C2034       C  0.76151131  0.40992897  0.31149892     1.09900
C2035       C  0.67661533  0.06167367  0.24619838     1.10000
C2036       C  0.68483469  0.41885208  0.23958502     1.09900
C2037       C  0.76694158  0.05446736  0.32996231     1.09900
C2038       C  0.85838230  0.38905352  0.33274121    -0.25900
C2039       C  0.88511516  0.39833822  0.30357632    -0.13900
C2040       C  0.89829826  0.43651520  0.30356951     0.36700
C2041       C  0.88610836  0.46198291  0.33322664    -0.25300
C2042       C  0.87235260  0.44699226  0.36786999    -0.14600
C2043       C  0.85295612  0.41265624  0.36567788     0.37800
N2044       N  0.82554517  0.40367630  0.39510583    -0.88800
H2045       H  0.84191888  0.36410594  0.32913124     0.18900
H2046       H  0.89351913  0.49159414  0.33192046     0.18900
N2047       N  0.92276148  0.44963181  0.27285506    -0.87800
H2048       H  0.80552723  0.42661596  0.39578680     0.36300
H2049       H  0.83838703  0.40377771  0.42121549     0.41300
H2050       H  0.90974261  0.47384664  0.26082108     0.41000
H2051       H  0.94770400  0.45836382  0.28444391     0.35900
C2052       C  0.52696814  0.10043660  0.30074788    -0.25900
C2053       C  0.53805563  0.11327780  0.33643165    -0.13900
C2054       C  0.57246199  0.13131578  0.33834261     0.36700
C2055       C  0.59983800  0.12538971  0.30865468    -0.25300
C2056       C  0.59181063  0.10380413  0.27587604    -0.14600
C2057       C  0.55441662  0.09304334  0.27125967     0.37800
N2058       N  0.54453927  0.07492693  0.23655071    -0.88800
H2059       H  0.49875635  0.09048988  0.29756745     0.18900
H2060       H  0.62676618  0.13887393  0.30997546     0.18900
N2061       N  0.57989403  0.15463030  0.37058953    -0.87800
H2062       H  0.52248636  0.09127978  0.22519437     0.36300
H2063       H  0.53396115  0.04803109  0.24341848     0.41300
H2064       H  0.56060769  0.17823549  0.37133512     0.41000
H2065       H  0.57396066  0.13879745  0.39525144     0.35900
C2066       C  0.87505527  0.11623045  0.35909862    -0.25900
C2067       C  0.90038549  0.08712426  0.37088034    -0.13900
C2068       C  0.92082247  0.06470939  0.34202479     0.36700
C2069       C  0.91425957  0.07080034  0.30372457    -0.25300
C2070       C  0.88685565  0.09769957  0.29335066    -0.14600
C2071       C  0.86436535  0.11787535  0.32115639     0.37800
N2072       N  0.83081232  0.13964207  0.31149540    -0.88800
H2073       H  0.86224199  0.13633152  0.37981737     0.18900
H2074       H  0.93109267  0.05480123  0.28174039     0.18900
N2075       N  0.95129516  0.03882998  0.35058257    -0.87800
H2076       H  0.80749057  0.12899520  0.32678439     0.36300
H2077       H  0.82546249  0.13679523  0.28265351     0.41300
H2078       H  0.97475963  0.04782954  0.33455730     0.41000
H2079       H  0.94696586  0.01152090  0.33972804     0.35900
C2080       C  0.56078243  0.39671216  0.32677517    -0.25900
C2081       C  0.54310225  0.43023796  0.31449013    -0.13900
C2082       C  0.54997395  0.44294198  0.27655406     0.36700
C2083       C  0.57919322  0.42453019  0.25406338    -0.25300
C2084       C  0.59944215  0.39309730  0.26860386    -0.14600
C2085       C  0.58923816  0.37837593  0.30440984     0.37800
N2086       N  0.60936401  0.34529962  0.31817145    -0.88800
H2087       H  0.55505314  0.38721636  0.35541725     0.18900
H2088       H  0.58585713  0.43455467  0.22553793     0.18900
N2089       N  0.52955666  0.47528706  0.26117273    -0.87800
H2090       H  0.59855767  0.33793348  0.34511229     0.36300
H2091       H  0.63736711  0.35310215  0.32030038     0.41300
H2092       H  0.50870249  0.48642944  0.28087362     0.41000
H2093       H  0.51531039  0.46520667  0.23793655     0.35900
C2094       C  0.69734005  0.43812848  0.44000574    -0.25900
C2095       C  0.66185989  0.43762922  0.42347665    -0.13900
C2096       C  0.65834541  0.41761273  0.38912015     0.36700
C2097       C  0.68959798  0.39709608  0.37304162    -0.25300
C2098       C  0.72361982  0.39415644  0.39169997    -0.14600
C2099       C  0.72722693  0.41384447  0.42614606     0.37800
N2100       N  0.75961302  0.40744505  0.44835988    -0.88800
H2101       H  0.70010111  0.45311923  0.46681517     0.18900
H2102       H  0.68708863  0.38187174  0.34633742     0.18900
N2103       N  0.62368912  0.41710226  0.37004591    -0.87800
H2104       H  0.75032513  0.39579590  0.47447826     0.36300
H2105       H  0.77075010  0.43423946  0.45419966     0.41300
H2106       H  0.60123379  0.43133999  0.38545246     0.41000
H2107       H  0.62818732  0.43195444  0.34449282     0.35900
C2108       C  0.65200605  0.12411236  0.42032130    -0.25900
C2109       C  0.64574030  0.09674572  0.44899253    -0.13900
C2110       C  0.67519378  0.06840698  0.45525459     0.36700
C2111       C  0.70897045  0.06881858  0.43282009    -0.25300
C2112       C  0.71251975  0.09339717  0.40165466    -0.14600
C2113       C  0.68293000  0.11891232  0.39404209     0.37800
N2114       N  0.68367080  0.13779966  0.35829540    -0.88800
H2115       H  0.63061454  0.14595034  0.41525558     0.18900
H2116       H  0.73252002  0.04928864  0.43882713     0.18900
N2117       N  0.66845030  0.03538372  0.47897125    -0.87800
H2118       H  0.68376191  0.11650637  0.33702060     0.36300
H2119       H  0.70979175  0.15082380  0.35496918     0.41300
H2120       H  0.66259520  0.04393296  0.50699824     0.41000
H2121       H  0.69277029  0.01737880  0.47928731     0.35900
C2122       C  0.67160126  0.09709301  0.13704411    -0.25900
C2123       C  0.69840816  0.10377489  0.10730687    -0.13900
C2124       C  0.68800436  0.09794232  0.06984272     0.36700
C2125       C  0.64971052  0.09512540  0.06268771    -0.25300
C2126       C  0.62146893  0.09178174  0.09233226    -0.14600
C2127       C  0.63379784  0.08965135  0.13010628     0.37800
N2128       N  0.60820050  0.08454489  0.16247816    -0.88800
H2129       H  0.67999183  0.09791460  0.16578164     0.18900
H2130       H  0.64229954  0.09522909  0.03350669     0.18900
N2131       N  0.71659527  0.09156754  0.03965306    -0.87800
H2132       H  0.60596292  0.05510962  0.16750424     0.36300
H2133       H  0.58174092  0.09776925  0.15812189     0.41300
H2134       H  0.70812068  0.10590067  0.01528547     0.41000
H2135       H  0.71800073  0.06212173  0.03310562     0.35900
C2136       C  0.68535573  0.46338616  0.08617024    -0.25900
C2137       C  0.65164729  0.44914451  0.10273853    -0.13900
C2138       C  0.65361496  0.41565612  0.12459368     0.36700
C2139       C  0.68684557  0.39226040  0.12264403    -0.25300
C2140       C  0.71825769  0.40273710  0.09987913    -0.14600
C2141       C  0.71813691  0.43953778  0.08299140     0.37800
N2142       N  0.75145601  0.45247814  0.06261474    -0.88800
H2143       H  0.68443464  0.48984727  0.06989493     0.18900
H2144       H  0.68858415  0.36598254  0.13899358     0.18900
N2145       N  0.62119603  0.40473215  0.14718140    -0.87800
H2146       H  0.75919228  0.47812374  0.07542743     0.36300
H2147       H  0.74450776  0.45865859  0.03464984     0.41300
H2148       H  0.61566630  0.42642637  0.16767307     0.41000
H2149       H  0.62816863  0.37973245  0.16202558     0.35900
C2150       C  0.94326445  0.26267390  0.41481583    -0.30700
C2151       C  0.91044213  0.26732080  0.39543113    -0.13900
C2152       C  0.89047770  0.30273867  0.39496562     0.36700
C2153       C  0.90385418  0.33396129  0.41409335    -0.25300
C2154       C  0.93721585  0.33050501  0.43322330    -0.14600
C2155       C  0.95676893  0.29386575  0.43424018     0.37800
N2156       N  0.98981247  0.28778077  0.45549980    -0.88800
H2157       H  0.95776476  0.23461819  0.41559086     0.18900
H2158       H  0.88893311  0.36138289  0.41271834     0.18900
N2159       N  0.85581628  0.30595725  0.37586643    -0.87800
H2160       H  0.98429199  0.26567680  0.47486456     0.36300
H2161       H  0.01182471  0.27781627  0.43641479     0.41300
H2162       H  0.86247208  0.30454503  0.34649198     0.41000
H2163       H  0.84141339  0.33190701  0.38302906     0.35900
C2164       C  0.62827117  0.31952056  0.42862664    -0.25900
C2165       C  0.60295346  0.30917474  0.45819319    -0.13900
C2166       C  0.58982354  0.27154139  0.45960237     0.36700
C2167       C  0.59515933  0.24753563  0.42757376    -0.25300
C2168       C  0.61544631  0.26013852  0.39515399    -0.14600
C2169       C  0.63474888  0.29539485  0.39704147     0.37800
N2170       N  0.66145225  0.30732032  0.36756891    -0.88800
H2171       H  0.63918866  0.34819804  0.42771397     0.18900
H2172       H  0.58502061  0.21845020  0.42852963     0.18900
N2173       N  0.57140609  0.25773470  0.49369301    -0.87800
H2174       H  0.66096899  0.29058245  0.34283676     0.36300
H2175       H  0.68856026  0.30465569  0.37781295     0.41300
H2176       H  0.54569624  0.24638965  0.48681437     0.41000
H2177       H  0.58830581  0.23486688  0.50342550     0.35900
C2178       C  0.89865551  0.34827250  0.12039235    -0.25900
C2179       C  0.91874516  0.35374306  0.08576202    -0.13900
C2180       C  0.92689079  0.32062406  0.06223204     0.36700
C2181       C  0.91220781  0.28475303  0.07211922    -0.25300
C2182       C  0.88972733  0.28082720  0.10541671    -0.14600
C2183       C  0.88323628  0.31271683  0.13015245     0.37800
N2184       N  0.85941220  0.30935923  0.16423007    -0.88800
H2185       H  0.89292661  0.37244974  0.13852619     0.18900
H2186       H  0.91803830  0.25995928  0.05345830     0.18900
N2187       N  0.95005793  0.32272425  0.02805853    -0.87800
H2188       H  0.83611388  0.32857983  0.16285484     0.36300
H2189       H  0.87465094  0.31752449  0.18744093     0.41300
H2190       H  0.93372433  0.31251667  0.00655524     0.41000
H2191       H  0.97309125  0.30326160  0.03003034     0.35900
C2192       C  0.59056010  0.29595697  0.13571262    -0.25900
C2193       C  0.58230878  0.27316390  0.10369643    -0.13900
C2194       C  0.54645812  0.27998116  0.08790854     0.36700
C2195       C  0.52628227  0.31453892  0.09657274    -0.25300
C2196       C  0.54114302  0.34149587  0.12082994    -0.14600
C2197       C  0.56702622  0.32822211  0.14615496     0.37800
N2198       N  0.56695748  0.34600038  0.18285314    -0.88800
H2199       H  0.61336783  0.28702388  0.15344222     0.18900
H2200       H  0.50264321  0.32313553  0.08014100     0.18900
N2201       N  0.52940268  0.25232926  0.06414370    -0.87800
H2202       H  0.54097518  0.34015102  0.19691614     0.36300
H2203       H  0.56642799  0.37587529  0.18006064     0.41300
H2204       H  0.50415032  0.24428260  0.07829548     0.41000
H2205       H  0.54634664  0.22718207  0.06045637     0.35900
O2206       O  0.74684967  0.30198897  0.56813931    -0.79700
O2207       O  0.72835943  0.22592624  0.89174819    -0.79700
O2208       O  0.78934051  0.31155108  0.94245843    -0.79700
O2209       O  0.67037588  0.23749050  0.52540504    -0.79700
O2210       O  0.73247758  0.29158390  0.93384108    -0.79800
O2211       O  0.69202553  0.25482888  0.58052314    -0.79700
O2212       O  0.68317329  0.22422164  0.93846638    -0.79700
O2213       O  0.78182164  0.32622320  0.52139882    -0.79700
C2214       C  0.76602036  0.32925543  0.55480636     1.10000
C2215       C  0.69345722  0.22356451  0.90154624     1.09900
C2216       C  0.75875624  0.31434141  0.92428076     1.10000
C2217       C  0.66517536  0.24163099  0.56237610     1.09900
O2218       O  0.75286190  0.20972322  0.57167796    -0.79700
O2219       O  0.79923533  0.24793541  0.90979824    -0.79800
O2220       O  0.82866020  0.25908560  0.53909297    -0.79700
O2221       O  0.72891429  0.15710992  0.95748947    -0.79700
O2222       O  0.77745303  0.18487732  0.93439969    -0.79700
O2223       O  0.77738937  0.24016917  0.57396485    -0.79700
O2224       O  0.72406171  0.16944078  0.53600340    -0.79700
O2225       O  0.83862689  0.24327370  0.95581642    -0.79700
Co2226     Co  0.73189647  0.25428003  0.54090378     1.51500
Co2227     Co  0.75114984  0.23659456  0.93822300     1.51700
Co2228     Co  0.80541146  0.28086711  0.99016703     1.51600
Co2229     Co  0.70873768  0.20295805  0.48999626     1.51500
O2230       O  0.76075068  0.24061063  0.49246943    -1.41600
C2231       C  0.74269871  0.17519967  0.56563350     1.09900
C2232       C  0.83202746  0.23930944  0.92045016     1.10000
C2233       C  0.81361536  0.24658458  0.57076585     1.09900
C2234       C  0.75883075  0.15518618  0.93649474     1.09900
N2235       N  0.59961553  0.23553222  0.60064448    -0.03000
C2236       C  0.63398977  0.22195485  0.58465122    -0.00400
C2237       C  0.64237979  0.18703372  0.60098203    -0.23300
C2238       C  0.61288057  0.17902232  0.62643589    -0.23500
C2239       C  0.58624914  0.20843590  0.62481233    -0.00500
H2240       H  0.66949239  0.17199181  0.59851983     0.13200
H2241       H  0.61336920  0.15792836  0.64850558     0.13300
N2242       N  0.87342313  0.24451213  0.61443050    -0.03000
C2243       C  0.83730007  0.23517137  0.60511747    -0.00400
C2244       C  0.82244801  0.21291271  0.63441949    -0.23300
C2245       C  0.85066379  0.20439666  0.65896766    -0.23500
C2246       C  0.88234676  0.22364124  0.64637166    -0.00500
H2247       H  0.79331864  0.20473170  0.63854091     0.13200
H2248       H  0.84717229  0.18872698  0.68540870     0.13300
N2249       N  0.62878632  0.23183107  0.86783330    -0.03000
C2250       C  0.61694940  0.22616089  0.83105058    -0.00400
C2251       C  0.64900972  0.21430967  0.80880160    -0.23300
C2252       C  0.67956710  0.21272116  0.83135217    -0.23500
C2253       C  0.66643474  0.22074267  0.86849766    -0.00500
H2254       H  0.65084398  0.20976254  0.77827159     0.13200
H2255       H  0.70870139  0.20670537  0.82128277     0.13300
N2256       N  0.89485647  0.23512535  0.87857750    -0.03000
C2257       C  0.90310554  0.22406865  0.84147303    -0.00400
C2258       C  0.87188317  0.20635573  0.82876854    -0.23300
C2259       C  0.84492217  0.20571919  0.85831610    -0.23500
C2260       C  0.85943417  0.22305621  0.88935454    -0.00500
H2261       H  0.86727749  0.19859305  0.79956237     0.13200
H2262       H  0.81587452  0.19743811  0.85614224     0.13300
N2263       N  0.49460301  0.40906619  0.57615266    -0.36200
N2264       N  0.94693010  0.40361335  0.50830193    -0.56700
N2265       N  0.51593837  0.36900164  0.97227796    -0.36200
N2266       N  0.56236214  0.37494947  0.53575887    -0.56700
C2267       C  0.95893022  0.41137438  0.59148310     0.27400
C2268       C  0.51794673  0.40551632  0.60514676     0.27400
C2269       C  0.99149474  0.36985894  0.94408990     0.27400
C2270       C  0.54981669  0.35622630  0.95659688     0.27400
C2271       C  0.92018433  0.40566711  0.53715139     0.36000
C2272       C  0.93085290  0.38717924  0.97867249     0.36000
C2273       C  0.57469062  0.37498780  0.57125076     0.36000
C2274       C  0.58434963  0.34893415  0.01530543     0.36000
C2275       C  0.95997721  0.41638091  0.63031464    -0.21400
C2276       C  0.49723197  0.41268754  0.63921338    -0.21400
C2277       C  0.01029656  0.35830470  0.91023821    -0.21400
C2278       C  0.54682620  0.35031354  0.91798314    -0.21400
C2279       C  0.88547975  0.39763038  0.52355410    -0.22500
C2280       C  0.89213152  0.38466073  0.98697071    -0.22500
C2281       C  0.60739627  0.35124752  0.57171640    -0.22500
C2282       C  0.61274822  0.33366055  0.03663016    -0.22500
C2283       C  0.92908559  0.39410855  0.57381071    -0.17900
C2284       C  0.54898701  0.37921494  0.60327472    -0.17900
C2285       C  0.57952148  0.34014164  0.97722166    -0.17800
C2286       C  0.95253650  0.36539041  0.95065395    -0.17800
H2287       H  0.93624075  0.41888997  0.65037147     0.15100
H2288       H  0.50702104  0.40925800  0.66773521     0.15100
H2289       H  0.99782432  0.34855625  0.88463141     0.15100
H2290       H  0.56642901  0.33520989  0.89842101     0.15100
H2291       H  0.85917348  0.39548519  0.54007852     0.13300
H2292       H  0.87107142  0.37032958  0.97163388     0.13300
H2293       H  0.62483718  0.34563358  0.59547862     0.13300
H2294       H  0.63523010  0.31300861  0.02769385     0.13300
H2295       H  0.50155223  0.40257218  0.54803127     0.26600
H2296       H  0.50749674  0.36557274  0.00062272     0.26600
O2297       O  0.57535024  0.22816638  0.68762551    -0.79700
O2298       O  0.92449870  0.29070566  0.75736787    -0.79700
O2299       O  0.94530214  0.20741045  0.67263778    -0.79700
O2300       O  0.55937985  0.31046367  0.76728691    -0.79700
O2301       O  0.90762574  0.25226721  0.70113349    -0.79800
O2302       O  0.59449041  0.27693229  0.72452863    -0.79700
O2303       O  0.97650164  0.32024622  0.76469434    -0.79700
O2304       O  0.52472410  0.21654466  0.65862744    -0.79700
C2305       C  0.56031460  0.21789317  0.65827390     1.10000
C2306       C  0.94073431  0.32218383  0.76076512     1.09900
C2307       C  0.91417073  0.22936320  0.67333316     1.10000
C2308       C  0.59077455  0.30623873  0.74500907     1.09900
O2309       O  0.58154152  0.22732914  0.77434225    -0.79700
O2310       O  0.92080716  0.19595111  0.74664255    -0.79800
O2311       O  0.54524104  0.15953785  0.71421977    -0.79700
O2312       O  0.96316246  0.25603390  0.82117503    -0.79700
O2313       O  0.92807688  0.22673838  0.77821946    -0.79700
O2314       O  0.57829856  0.20216152  0.74545423    -0.79700
O2315       O  0.54807965  0.24962594  0.82438217    -0.79700
O2316       O  0.96606336  0.15253790  0.73280752    -0.79700
Co2317     Co  0.55002011  0.25153842  0.73319065     1.51500
Co2318     Co  0.95158697  0.24519484  0.72979927     1.51700
Co2319     Co  0.99628796  0.18911191  0.70070004     1.51600
Co2320     Co  0.00989902  0.27829436  0.78991330     1.51500
O2321       O  0.00181418  0.23073723  0.74823751    -1.41600
C2322       C  0.57976375  0.23512227  0.81032747     1.09900
C2323       C  0.93106819  0.15992326  0.74062154     1.10000
C2324       C  0.57548686  0.16873574  0.73017424     1.09900
C2325       C  0.93402481  0.23635533  0.81277151     1.09900
N2326       N  0.75374735  0.38393613  0.60582604    -0.03000
C2327       C  0.77613291  0.40077585  0.63068469    -0.00400
C2328       C  0.81318201  0.38997162  0.62194690    -0.23300
C2329       C  0.81334578  0.36500479  0.59085123    -0.23500
C2330       C  0.77641551  0.36187729  0.58067833    -0.00500
H2331       H  0.83672419  0.39829423  0.63786258     0.13200
H2332       H  0.83736247  0.34840355  0.57836283     0.13300
N2333       N  0.73552761  0.11685363  0.61464711    -0.03000
C2334       C  0.75614922  0.14218573  0.59192755    -0.00400
C2335       C  0.79309241  0.13975956  0.60255808    -0.23300
C2336       C  0.79445076  0.11712697  0.63468350    -0.23500
C2337       C  0.75894988  0.10293475  0.64233451    -0.00500
H2338       H  0.81658287  0.15466321  0.58927766     0.13200
H2339       H  0.81886195  0.11244125  0.65119377     0.13300
N2340       N  0.74953420  0.10191953  0.88718913    -0.03000
C2341       C  0.77108808  0.12036087  0.91225040    -0.00400
C2342       C  0.80653572  0.10351857  0.91089872    -0.23300
C2343       C  0.80746344  0.07469631  0.88313653    -0.23500
C2344       C  0.77296972  0.07611856  0.86681362    -0.00500
H2345       H  0.82922267  0.11219867  0.92811371     0.13200
H2346       H  0.83134356  0.05583057  0.87409725     0.13300
N2347       N  0.75351361  0.37054520  0.87438621    -0.03000
C2348       C  0.76252779  0.37362797  0.83598046    -0.00400
C2349       C  0.77400420  0.33766485  0.82163161    -0.23300
C2350       C  0.77285404  0.31228382  0.85190190    -0.23500
C2351       C  0.76037587  0.33284101  0.88458338    -0.00500
H2352       H  0.78322164  0.33072861  0.79238134     0.13200
H2353       H  0.78084418  0.28193816  0.84997834     0.13300
N2354       N  0.59362491  0.51685228  0.95606947    -0.36200
N2355       N  0.60571499  0.45713226  0.01250650    -0.56700
N2356       N  0.59220037  0.51825994  0.56744064    -0.36200
N2357       N  0.56963608  0.07939224  0.01578801    -0.56700
C2358       C  0.61291995  0.48959221  0.93387902     0.27400
C2359       C  0.59809399  0.05071194  0.93780377     0.27400
C2360       C  0.59305202  0.48668543  0.58898379     0.27400
C2361       C  0.57224400  0.04587797  0.58749208     0.27400
C2362       C  0.62158449  0.43766603  0.98203439     0.36000
C2363       C  0.62222398  0.44149877  0.54261559     0.36000
C2364       C  0.58371511  0.10127499  0.98732678     0.36000
C2365       C  0.56918422  0.10108137  0.54794082     0.36000
C2366       C  0.62543626  0.50559239  0.89983756    -0.21400
C2367       C  0.61617655  0.04355608  0.90249647    -0.21400
C2368       C  0.57218556  0.49318639  0.62298258    -0.21400
C2369       C  0.55786308  0.03076748  0.62150131    -0.21400
C2370       C  0.64356808  0.40644775  0.99368659    -0.22500
C2371       C  0.64682327  0.41130260  0.53123458    -0.22500
C2372       C  0.58694473  0.13875678  0.00007073    -0.22500
C2373       C  0.57666562  0.13887172  0.53844132    -0.22500
C2374       C  0.62831870  0.45403509  0.94600577    -0.17900
C2375       C  0.60579519  0.08520187  0.95651303    -0.17900
C2376       C  0.58110964  0.08429365  0.58209509    -0.17800
C2377       C  0.61803929  0.45584179  0.58010640    -0.17800
H2378       H  0.64380782  0.49287140  0.87713640     0.15100
H2379       H  0.62704224  0.06471311  0.88270663     0.15100
H2380       H  0.56907117  0.47374295  0.64679904     0.15100
H2381       H  0.54242994  0.04635772  0.64461013     0.15100
H2382       H  0.66022313  0.38536707  0.97648320     0.13300
H2383       H  0.66497787  0.39356106  0.54815715     0.13300
H2384       H  0.60028965  0.16198403  0.98465678     0.13300
H2385       H  0.58146393  0.16206449  0.55797281     0.13300
H2386       H  0.58418612  0.51443289  0.98444143     0.26600
H2387       H  0.61042408  0.52294732  0.54366789     0.26600
N2388       N  0.62699255  0.37179362  0.74549222    -0.03000
C2389       C  0.62425323  0.33306736  0.73877497    -0.00400
C2390       C  0.65844214  0.31934320  0.72173801    -0.23300
C2391       C  0.68242504  0.34959027  0.71900494    -0.23500
C2392       C  0.66304148  0.38221102  0.73376131    -0.00500
H2393       H  0.66566700  0.28993626  0.71276734     0.13200
H2394       H  0.71166873  0.34742756  0.70826140     0.13300
N2395       N  0.88222800  0.10370643  0.75402357    -0.03000
C2396       C  0.86354207  0.07879404  0.73160187    -0.00400
C2397       C  0.87341064  0.08701918  0.69400233    -0.23300
C2398       C  0.89743059  0.11789445  0.69368464    -0.23500
C2399       C  0.90258860  0.12865965  0.73115459    -0.00500
H2400       H  0.86491189  0.07146241  0.66923882     0.13200
H2401       H  0.91064486  0.13053987  0.66844677     0.13300
N2402       N  0.61600007  0.10810311  0.74275901    -0.03000
C2403       C  0.65438008  0.09983033  0.74167601    -0.00400
C2404       C  0.67291778  0.13202328  0.72845617    -0.23300
C2405       C  0.64595507  0.15881909  0.71817603    -0.23500
C2406       C  0.61116238  0.14349053  0.72676269    -0.00500
H2407       H  0.70300567  0.13576174  0.72531990     0.13200
H2408       H  0.65116636  0.18749825  0.70766606     0.13300
N2409       N  0.88695489  0.37687827  0.76805482    -0.03000
C2410       C  0.86852724  0.39611868  0.74041165    -0.00400
C2411       C  0.89044586  0.39574836  0.70747915    -0.23300
C2412       C  0.92210805  0.37213605  0.71311729    -0.23500
C2413       C  0.91972263  0.35999791  0.75064464    -0.00500
H2414       H  0.88361699  0.41269272  0.68305119     0.13200
H2415       H  0.94362295  0.36289258  0.69152740     0.13300
N2416       N  0.47497863  0.08013426  0.91610241    -0.36200
N2417       N  0.52157700  0.01804922  0.87443590    -0.56700
N2418       N  0.46758954  0.45568443  0.88981519    -0.36200
N2419       N  0.91720022  0.01521704  0.91710324    -0.56700
C2420       C  0.49845528  0.10261677  0.89548274     0.27400
C2421       C  0.94169308  0.10045357  0.92111657     0.27400
C2422       C  0.49005063  0.43932396  0.86143162     0.27400
C2423       C  0.93541088  0.43558824  0.89149894     0.27400
C2424       C  0.54096486  0.04966541  0.86487584     0.36000
C2425       C  0.53920306  0.48872830  0.85403489     0.36000
C2426       C  0.89931516  0.04787881  0.92981315     0.36000
C2427       C  0.89297678  0.48650072  0.92073583     0.36000
C2428       C  0.48315476  0.14000517  0.89501256    -0.21400
C2429       C  0.94713758  0.13859273  0.91135465    -0.21400
C2430       C  0.47432100  0.40650010  0.84813370    -0.21400
C2431       C  0.94142256  0.40286784  0.86873669    -0.21400
C2432       C  0.57184767  0.03886378  0.84052598    -0.22500
C2433       C  0.57182644  0.50066255  0.83524208    -0.22500
C2434       C  0.86348853  0.03902633  0.94451658    -0.22500
C2435       C  0.85893492  0.50032861  0.93744204    -0.22500
C2436       C  0.52702102  0.08853903  0.86893061    -0.17900
C2437       C  0.90794355  0.08323359  0.91262292    -0.17900
C2438       C  0.89843994  0.45233628  0.89948571    -0.17800
C2439       C  0.52307052  0.45396397  0.84455428    -0.17800
H2440       H  0.49391110  0.16412150  0.87893552     0.15100
H2441       H  0.92518618  0.16090457  0.90880300     0.15100
H2442       H  0.48448796  0.38750892  0.82486317     0.15100
H2443       H  0.92228221  0.38095484  0.86256012     0.15100
H2444       H  0.59406080  0.05603028  0.82896012     0.13300
H2445       H  0.59260508  0.48437287  0.81730554     0.13300
H2446       H  0.84189872  0.05848317  0.95723063     0.13300
H2447       H  0.83314034  0.48474237  0.94208145     0.13300
H2448       H  0.47824233  0.05045273  0.91928528     0.26600
H2449       H  0.47340284  0.48019153  0.90520614     0.26600
O2450       O  0.75804254  0.40053272  0.69633090    -0.79700
O2451       O  0.80955027  0.03886258  0.72159565    -0.79700
O2452       O  0.74205583  0.04177176  0.67424383    -0.79700
O2453       O  0.83631171  0.45778347  0.75565175    -0.79700
O2454       O  0.75514224  0.09177658  0.71125063    -0.79800
O2455       O  0.80214615  0.40902050  0.74477702    -0.79700
O2456       O  0.83016725  0.03572834  0.77750766    -0.79700
O2457       O  0.75394256  0.45755808  0.66898991    -0.79700
C2458       C  0.76159159  0.42057923  0.66675766     1.10000
C2459       C  0.83408875  0.04902485  0.74402103     1.09900
C2460       C  0.75024048  0.07808220  0.67774157     1.10000
C2461       C  0.83415402  0.42241523  0.74719726     1.09900
O2462       O  0.74430010  0.40971830  0.77984591    -0.79700
O2463       O  0.70517770  0.06220505  0.76574706    -0.79800
O2464       O  0.68166959  0.44865306  0.71816912    -0.79700
O2465       O  0.76872107  0.01802456  0.83175460    -0.79700
O2466       O  0.76834379  0.07085217  0.79649980    -0.79700
O2467       O  0.71485530  0.41533220  0.75785343    -0.79700
O2468       O  0.78203321  0.43825493  0.81936437    -0.79700
O2469       O  0.67430603  0.03313036  0.72345483    -0.79700
Co2470     Co  0.75768252  0.44179332  0.73197685     1.51500
Co2471     Co  0.75608095  0.04656613  0.74346943     1.51700
Co2472     Co  0.71760002  0.99457000  0.70436356     1.51600
Co2473     Co  0.79951603  0.48753852  0.79248284     1.51500
O2474       O  0.75126062  0.49205036  0.75788875    -1.41600
C2475       C  0.76152459  0.40993259  0.81148637     1.09900
C2476       C  0.67655567  0.06166929  0.74621511     1.10000
C2477       C  0.68486658  0.41881997  0.73954653     1.09900
C2478       C  0.76688864  0.05452753  0.82987936     1.09900
C2479       C  0.85848986  0.38892753  0.83263640    -0.25900
C2480       C  0.88521913  0.39822881  0.80347257    -0.13900
C2481       C  0.89839822  0.43640507  0.80346911     0.36700
C2482       C  0.88618858  0.46186066  0.83311814    -0.25300
C2483       C  0.87245782  0.44685658  0.86775691    -0.14600
C2484       C  0.85306748  0.41252271  0.86557512     0.37800
N2485       N  0.82559644  0.40359736  0.89496726    -0.88800
H2486       H  0.84198241  0.36401059  0.82899708     0.18900
H2487       H  0.89351185  0.49149511  0.83178763     0.18900
N2488       N  0.92281873  0.44955224  0.77273312    -0.87800
H2489       H  0.80557318  0.42652948  0.89556555     0.36300
H2490       H  0.83837394  0.40376014  0.92110994     0.41300
H2491       H  0.90975852  0.47374983  0.76070891     0.41000
H2492       H  0.94775808  0.45832659  0.78429969     0.35900
C2493       C  0.52684859  0.10031668  0.80067800    -0.25900
C2494       C  0.53790225  0.11320538  0.83635764    -0.13900
C2495       C  0.57227205  0.13131441  0.83826601     0.36700
C2496       C  0.59966921  0.12540426  0.80859727    -0.25300
C2497       C  0.59169523  0.10378254  0.77582698    -0.14600
C2498       C  0.55431268  0.09297967  0.77119053     0.37800
N2499       N  0.54445503  0.07488655  0.73646407    -0.88800
H2500       H  0.49865764  0.09031210  0.79749571     0.18900
H2501       H  0.62657695  0.13892793  0.80992678     0.18900
N2502       N  0.57966191  0.15467261  0.87049802    -0.87800
H2503       H  0.52240292  0.09124731  0.72511502     0.36300
H2504       H  0.53387470  0.04798689  0.74330798     0.41300
H2505       H  0.56033978  0.17824806  0.87122140     0.41000
H2506       H  0.57376319  0.13885216  0.89517503     0.35900
C2507       C  0.87512742  0.11616850  0.85908218    -0.25900
C2508       C  0.90038062  0.08699046  0.87087214    -0.13900
C2509       C  0.92079046  0.06455148  0.84201986     0.36700
C2510       C  0.91424148  0.07065982  0.80371214    -0.25300
C2511       C  0.88687500  0.09760532  0.79333561    -0.14600
C2512       C  0.86442608  0.11782122  0.82114320     0.37800
N2513       N  0.83089879  0.13963195  0.81148347    -0.88800
H2514       H  0.86236401  0.13631005  0.87979228     0.18900
H2515       H  0.93106743  0.05465444  0.78172757     0.18900
N2516       N  0.95125773  0.03866877  0.85059202    -0.87800
H2517       H  0.80755941  0.12903118  0.82677892     0.36300
H2518       H  0.82553642  0.13678806  0.78264459     0.41300
H2519       H  0.97471635  0.04762907  0.83452869     0.41000
H2520       H  0.94691355  0.01134446  0.83979091     0.35900
C2521       C  0.56084542  0.39665465  0.82669839    -0.25900
C2522       C  0.54319641  0.43020633  0.81443036    -0.13900
C2523       C  0.55010883  0.44295126  0.77651216     0.36700
C2524       C  0.57933282  0.42454643  0.75403116    -0.25300
C2525       C  0.59952373  0.39306665  0.76854726    -0.14600
C2526       C  0.58930073  0.37832280  0.80433846     0.37800
N2527       N  0.60940189  0.34522312  0.81808660    -0.88800
H2528       H  0.55508526  0.38712719  0.85532512     0.18900
H2529       H  0.58604091  0.43460705  0.72552671     0.18900
N2530       N  0.52974088  0.47533714  0.76114656    -0.87800
H2531       H  0.59855951  0.33781380  0.84500180     0.36300
H2532       H  0.63740068  0.35301985  0.82026286     0.41300
H2533       H  0.50883143  0.48642964  0.78081566     0.41000
H2534       H  0.51556366  0.46531932  0.73783746     0.35900
C2535       C  0.69740126  0.43819942  0.93996811    -0.25900
C2536       C  0.66190119  0.43762904  0.92348664    -0.13900
C2537       C  0.65836906  0.41759364  0.88914165     0.36700
C2538       C  0.68961753  0.39707550  0.87306712    -0.25300
C2539       C  0.72365719  0.39419459  0.89169889    -0.14600
C2540       C  0.72729214  0.41392956  0.92610918     0.37800
N2541       N  0.75970037  0.40756875  0.94830234    -0.88800
H2542       H  0.70017562  0.45321338  0.96676056     0.18900
H2543       H  0.68709282  0.38180277  0.84639177     0.18900
N2544       N  0.62370335  0.41705791  0.87008070    -0.87800
H2545       H  0.75043579  0.39596585  0.97445041     0.36300
H2546       H  0.77085056  0.43437131  0.95407919     0.41300
H2547       H  0.60125501  0.43131594  0.88547875     0.41000
H2548       H  0.62819360  0.43188030  0.84450810     0.35900
C2549       C  0.65195345  0.12400207  0.92033863    -0.25900
C2550       C  0.64576965  0.09664013  0.94902113    -0.13900
C2551       C  0.67525271  0.06832912  0.95525788     0.36700
C2552       C  0.70900496  0.06877893  0.93279042    -0.25300
C2553       C  0.71248684  0.09336761  0.90162346    -0.14600
C2554       C  0.68285404  0.11884394  0.89404031     0.37800
N2555       N  0.68348990  0.13768709  0.85827391    -0.88800
H2556       H  0.63047355  0.14573986  0.91522697     0.18900
H2557       H  0.73258873  0.04928357  0.93877724     0.18900
N2558       N  0.66857313  0.03531245  0.97900093    -0.87800
H2559       H  0.68352803  0.11636505  0.83703269     0.36300
H2560       H  0.70960517  0.15070610  0.85486143     0.41300
H2561       H  0.66268138  0.04388791  0.00701314     0.41000
H2562       H  0.69294436  0.01738613  0.97936347     0.35900
C2563       C  0.67146962  0.09703145  0.63696961    -0.25900
C2564       C  0.69827253  0.10378157  0.60723835    -0.13900
C2565       C  0.68785088  0.09801326  0.56976658     0.36700
C2566       C  0.64955445  0.09515976  0.56262191    -0.25300
C2567       C  0.62131706  0.09177485  0.59226463    -0.14600
C2568       C  0.63364976  0.08963196  0.63003460     0.37800
N2569       N  0.60801616  0.08470165  0.66241557    -0.88800
H2570       H  0.67985806  0.09782763  0.66570962     0.18900
H2571       H  0.64213825  0.09528668  0.53344336     0.18900
N2572       N  0.71642669  0.09175832  0.53954222    -0.87800
H2573       H  0.60587527  0.05529908  0.66768750     0.36300
H2574       H  0.58152085  0.09778249  0.65793318     0.41300
H2575       H  0.70787582  0.10609069  0.51520229     0.41000
H2576       H  0.71791797  0.06232095  0.53295810     0.35900
C2577       C  0.68528917  0.46339405  0.58614587    -0.25900
C2578       C  0.65159347  0.44910278  0.60268758    -0.13900
C2579       C  0.65359638  0.41556502  0.62448083     0.36700
C2580       C  0.68686160  0.39222436  0.62253044    -0.25300
C2581       C  0.71825417  0.40276483  0.59978547    -0.14600
C2582       C  0.71807861  0.43956397  0.58290040     0.37800
N2583       N  0.75133279  0.45250184  0.56240776    -0.88800
H2584       H  0.68434318  0.48987429  0.56990238     0.18900
H2585       H  0.68864144  0.36593795  0.63886559     0.18900
N2586       N  0.62119259  0.40454037  0.64702674    -0.87800
H2587       H  0.75908986  0.47817339  0.57515363     0.36300
H2588       H  0.74428940  0.45863937  0.53446119     0.41300
H2589       H  0.61562597  0.42617417  0.66757214     0.41000
H2590       H  0.62819562  0.37951036  0.66181269     0.35900
C2591       C  0.94315590  0.26275863  0.91479716    -0.30700
C2592       C  0.91030629  0.26740285  0.89546419    -0.13900
C2593       C  0.89033111  0.30281777  0.89502657     0.36700
C2594       C  0.90376804  0.33405461  0.91409466    -0.25300
C2595       C  0.93715524  0.33059075  0.93319397    -0.14600
C2596       C  0.95667569  0.29393841  0.93421893     0.37800
N2597       N  0.98969944  0.28782497  0.95550138    -0.88800
H2598       H  0.95765785  0.23470245  0.91555067     0.18900
H2599       H  0.88889213  0.36149037  0.91268276     0.18900
N2600       N  0.85562476  0.30602120  0.87599717    -0.87800
H2601       H  0.98415035  0.26572102  0.97485879     0.36300
H2602       H  0.01171970  0.27784827  0.93643210     0.41300
H2603       H  0.86220682  0.30449075  0.84661426     0.41000
H2604       H  0.84126425  0.33200552  0.88309561     0.35900
C2605       C  0.62838640  0.31957142  0.92849622    -0.25900
C2606       C  0.60307219  0.30928484  0.95809415    -0.13900
C2607       C  0.58988081  0.27168044  0.95954516     0.36700
C2608       C  0.59511561  0.24765829  0.92751936    -0.25300
C2609       C  0.61543142  0.26018346  0.89508296    -0.14600
C2610       C  0.63481393  0.29540058  0.89693093     0.37800
N2611       N  0.66157007  0.30721700  0.86745530    -0.88800
H2612       H  0.63937611  0.34821894  0.92757640     0.18900
H2613       H  0.58489659  0.21860482  0.92849841     0.18900
N2614       N  0.57146132  0.25794208  0.99366985    -0.87800
H2615       H  0.66097948  0.29051140  0.84271231     0.36300
H2616       H  0.68867426  0.30437627  0.87768036     0.41300
H2617       H  0.54568214  0.24672276  0.98684170     0.41000
H2618       H  0.58828368  0.23500269  0.00337762     0.35900
C2619       C  0.89860400  0.34822806  0.62030032    -0.25900
C2620       C  0.91881766  0.35367309  0.58574055    -0.13900
C2621       C  0.92709915  0.32052317  0.56228759     0.36700
C2622       C  0.91246428  0.28462844  0.57220599    -0.25300
C2623       C  0.88981024  0.28074773  0.60540463    -0.14600
C2624       C  0.88319322  0.31267187  0.63006325     0.37800
N2625       N  0.85926395  0.30933172  0.66407112    -0.88800
H2626       H  0.89276013  0.37243419  0.63835129     0.18900
H2627       H  0.91841391  0.25980158  0.55361606     0.18900
N2628       N  0.95028549  0.32263324  0.52812603    -0.87800
H2629       H  0.83598318  0.32856427  0.66262597     0.36300
H2630       H  0.87443256  0.31746761  0.68733935     0.41300
H2631       H  0.93397640  0.31239132  0.50661981     0.41000
H2632       H  0.97333899  0.30319811  0.53011035     0.35900
C2633       C  0.59059476  0.29610876  0.63582611    -0.25900
C2634       C  0.58236990  0.27330980  0.60380185    -0.13900
C2635       C  0.54654580  0.28012679  0.58797076     0.36700
C2636       C  0.52634129  0.31466032  0.59664145    -0.25300
C2637       C  0.54117908  0.34163153  0.62088932    -0.14600
C2638       C  0.56705528  0.32838774  0.64623548     0.37800
N2639       N  0.56694956  0.34619088  0.68292901    -0.88800
H2640       H  0.61339827  0.28718689  0.65356345     0.18900
H2641       H  0.50272224  0.32325699  0.58018931     0.18900
N2642       N  0.52954856  0.25249879  0.56413611    -0.87800
H2643       H  0.54096534  0.34033084  0.69698134     0.36300
H2644       H  0.56639932  0.37606562  0.68012713     0.41300
H2645       H  0.50425311  0.24445941  0.57820510     0.41000
H2646       H  0.54648066  0.22733991  0.56049059     0.35900
O2647       O  0.74684060  0.80189547  0.06819634    -0.79700
O2648       O  0.72847374  0.72579025  0.39174717    -0.79700
O2649       O  0.78941625  0.81155499  0.44242078    -0.79700
O2650       O  0.67039015  0.73746705  0.02541768    -0.79700
O2651       O  0.73258131  0.79152223  0.43373768    -0.79800
O2652       O  0.69203270  0.75467500  0.08057355    -0.79700
O2653       O  0.68325205  0.72440057  0.43844883    -0.79700
O2654       O  0.78175639  0.82617402  0.02144098    -0.79700
C2655       C  0.76598425  0.82918269  0.05486232     1.10000
C2656       C  0.69354658  0.72360574  0.40153604     1.09900
C2657       C  0.75884433  0.81431241  0.42421807     1.10000
C2658       C  0.66517358  0.74153911  0.06239190     1.09900
O2659       O  0.75295342  0.70964551  0.07166302    -0.79700
O2660       O  0.79934549  0.74791045  0.40978676    -0.79800
O2661       O  0.82864031  0.75906044  0.03908166    -0.79700
O2662       O  0.72889225  0.65720633  0.45738484    -0.79700
O2663       O  0.77760527  0.68482666  0.43453461    -0.79700
O2664       O  0.77740546  0.74009443  0.07396606    -0.79700
O2665       O  0.72405669  0.66936683  0.03607787    -0.79700
O2666       O  0.83872128  0.74329187  0.45581682    -0.79700
Co2667     Co  0.73188915  0.75419252  0.04093905     1.51500
Co2668     Co  0.75127290  0.73654835  0.43821596     1.51700
Co2669     Co  0.80547764  0.78090017  0.49014875     1.51600
Co2670     Co  0.70870528  0.70286017  0.99004498     1.51500
O2671       O  0.76069565  0.74055333  0.99247100    -1.41600
C2672       C  0.74278203  0.67512207  0.06565116     1.09900
C2673       C  0.83213570  0.73930008  0.42044779     1.10000
C2674       C  0.81362073  0.74654943  0.07075941     1.09900
C2675       C  0.75890008  0.65518601  0.43652879     1.09900
N2676       N  0.59956165  0.73538443  0.10055097    -0.03000
C2677       C  0.63397718  0.72183616  0.08462241    -0.00400
C2678       C  0.64241721  0.68696962  0.10103767    -0.23300
C2679       C  0.61292766  0.67897033  0.12650417    -0.23500
C2680       C  0.58625191  0.70833549  0.12480845    -0.00500
H2681       H  0.66955922  0.67197753  0.09863456     0.13200
H2682       H  0.61345116  0.65793083  0.14862624     0.13300
N2683       N  0.87339868  0.74456856  0.11444832    -0.03000
C2684       C  0.83731277  0.73515021  0.10510407    -0.00400
C2685       C  0.82249887  0.71284290  0.13438552    -0.23300
C2686       C  0.85072247  0.70436402  0.15893709    -0.23500
C2687       C  0.88236664  0.72367957  0.14636246    -0.00500
H2688       H  0.79338481  0.70461316  0.13849829     0.13200
H2689       H  0.84725849  0.68866242  0.18536179     0.13300
N2690       N  0.62884412  0.73184859  0.36786239    -0.03000
C2691       C  0.61697936  0.72614984  0.33109234    -0.00400
C2692       C  0.64903497  0.71430603  0.30883378    -0.23300
C2693       C  0.67961766  0.71277877  0.33135213    -0.23500
C2694       C  0.66651082  0.72081910  0.36849666    -0.00500
H2695       H  0.65084888  0.70972516  0.27831140     0.13200
H2696       H  0.70874669  0.70676414  0.32126506     0.13300
N2697       N  0.89496509  0.73504506  0.37855970    -0.03000
C2698       C  0.90316222  0.72400836  0.34144159    -0.00400
C2699       C  0.87192109  0.70632205  0.32875221    -0.23300
C2700       C  0.84498723  0.70569468  0.35832231    -0.23500
C2701       C  0.85953519  0.72300683  0.38935819    -0.00500
H2702       H  0.86728087  0.69858353  0.29954632     0.13200
H2703       H  0.81592692  0.69744886  0.35616362     0.13300
N2704       N  0.49460689  0.90891370  0.07614634    -0.36200
N2705       N  0.94696506  0.90363986  0.00830784    -0.56700
N2706       N  0.51587508  0.86896121  0.47238395    -0.36200
N2707       N  0.56241735  0.87494332  0.03572760    -0.56700
C2708       C  0.95895130  0.91135719  0.09148659     0.27400
C2709       C  0.51797577  0.90541616  0.10511449     0.27400
C2710       C  0.99146101  0.86986858  0.44416586     0.27400
C2711       C  0.54975016  0.85618639  0.45670625     0.27400
C2712       C  0.92019866  0.90569183  0.03715013     0.36000
C2713       C  0.93082028  0.88707065  0.47871230     0.36000
C2714       C  0.57470734  0.87488753  0.07123934     0.36000
C2715       C  0.58426165  0.84887724  0.51538553     0.36000
C2716       C  0.96003776  0.91645096  0.13030877    -0.21400
C2717       C  0.49730430  0.91270661  0.13918251    -0.21400
C2718       C  0.01028713  0.85840478  0.41030422    -0.21400
C2719       C  0.54680521  0.85038065  0.41807415    -0.21400
C2720       C  0.88549381  0.89769448  0.02353147    -0.22500
C2721       C  0.89211197  0.88450397  0.48702729    -0.22500
C2722       C  0.60741402  0.85115519  0.07169544    -0.22500
C2723       C  0.61269057  0.83366578  0.53669825    -0.22500
C2724       C  0.92905273  0.89416219  0.07383913    -0.17900
C2725       C  0.54898693  0.87908738  0.10325158    -0.17900
C2726       C  0.57939442  0.84001379  0.47733539    -0.17800
C2727       C  0.95252589  0.86532235  0.45069824    -0.17800
H2728       H  0.93631944  0.91907127  0.15038206     0.15100
H2729       H  0.50712536  0.90935573  0.16770069     0.15100
H2730       H  0.99783606  0.84870925  0.38466755     0.15100
H2731       H  0.56641551  0.83530622  0.39850116     0.15100
H2732       H  0.85918836  0.89548304  0.04005612     0.13300
H2733       H  0.87106800  0.87011626  0.47171395     0.13300
H2734       H  0.62484431  0.84552768  0.09546775     0.13300
H2735       H  0.63515826  0.81298944  0.52778557     0.13300
H2736       H  0.50151548  0.90227173  0.04804429     0.26600
H2737       H  0.50741903  0.86552958  0.50072551     0.26600
O2738       O  0.57536985  0.72812995  0.18762555    -0.79700
O2739       O  0.92451263  0.79077472  0.25732670    -0.79700
O2740       O  0.94531892  0.70742680  0.17262651    -0.79700
O2741       O  0.55937250  0.81044742  0.26735149    -0.79700
O2742       O  0.90767370  0.75233243  0.20108866    -0.79800
O2743       O  0.59449662  0.77694058  0.22457706    -0.79700
O2744       O  0.97652020  0.82026267  0.26482819    -0.79700
O2745       O  0.52473961  0.71655248  0.15862445    -0.79700
C2746       C  0.56033061  0.71785048  0.15827312     1.10000
C2747       C  0.94076028  0.82223548  0.26085673     1.09900
C2748       C  0.91420197  0.72940453  0.17330680     1.10000
C2749       C  0.59075945  0.80624484  0.24506625     1.09900
O2750       O  0.58156132  0.72732725  0.27437749    -0.79700
O2751       O  0.92080532  0.69597388  0.24656489    -0.79800
O2752       O  0.54528415  0.65954291  0.21422664    -0.79700
O2753       O  0.96319479  0.75596438  0.32116889    -0.79700
O2754       O  0.92807276  0.72677198  0.27817168    -0.79700
O2755       O  0.57830106  0.70216133  0.24551379    -0.79700
O2756       O  0.54809209  0.74957815  0.32442691    -0.79700
O2757       O  0.96606571  0.65254579  0.23277603    -0.79700
Co2758     Co  0.55003854  0.75152928  0.23320082     1.51500
Co2759     Co  0.95161071  0.74523699  0.22977483     1.51700
Co2760     Co  0.99630859  0.68911635  0.20068988     1.51600
Co2761     Co  0.00991459  0.77825839  0.28996003     1.51500
O2762       O  0.00182369  0.73074179  0.24823075    -1.41600
C2763       C  0.57978396  0.73510140  0.31036998     1.09900
C2764       C  0.93106610  0.65993898  0.24056637     1.10000
C2765       C  0.57551826  0.66874060  0.23021542     1.09900
C2766       C  0.93404618  0.73632608  0.31273456     1.09900
N2767       N  0.75372833  0.88385371  0.10590701    -0.03000
C2768       C  0.77613096  0.90065407  0.13077618    -0.00400
C2769       C  0.81317604  0.88982764  0.12204023    -0.23300
C2770       C  0.81332665  0.86490180  0.09091501    -0.23500
C2771       C  0.77638893  0.86180092  0.08074049    -0.00500
H2772       H  0.83672908  0.89810708  0.13796981     0.13200
H2773       H  0.83734339  0.84831414  0.07840588     0.13300
N2774       N  0.73566851  0.61682054  0.11469715    -0.03000
C2775       C  0.75627940  0.64211771  0.09193865    -0.00400
C2776       C  0.79323564  0.63966794  0.10253708    -0.23300
C2777       C  0.79460024  0.61705646  0.13468570    -0.23500
C2778       C  0.75908924  0.60289843  0.14237938    -0.00500
H2779       H  0.81672791  0.65455067  0.08923089     0.13200
H2780       H  0.81902457  0.61235917  0.15117275     0.13300
N2781       N  0.74959477  0.60188769  0.38724708    -0.03000
C2782       C  0.77114859  0.62032785  0.41231104    -0.00400
C2783       C  0.80657527  0.60342394  0.41101548    -0.23300
C2784       C  0.80750025  0.57458854  0.38326662    -0.23500
C2785       C  0.77301705  0.57604133  0.36691128    -0.00500
H2786       H  0.82926370  0.61209603  0.42822898     0.13200
H2787       H  0.83138228  0.55571085  0.37425313     0.13300
N2788       N  0.75349025  0.87053243  0.37436234    -0.03000
C2789       C  0.76252415  0.87363538  0.33596552    -0.00400
C2790       C  0.77412402  0.83771411  0.32160635    -0.23300
C2791       C  0.77303549  0.81232795  0.35186620    -0.23500
C2792       C  0.76046162  0.83284259  0.38454450    -0.00500
H2793       H  0.78341210  0.83082132  0.29236449     0.13200
H2794       H  0.78114042  0.78200950  0.34994114     0.13300
N2795       N  0.59358216  0.01692748  0.45595156    -0.36200
N2796       N  0.60562098  0.95719160  0.51244529    -0.56700
N2797       N  0.59240377  0.01830759  0.06749826    -0.36200
N2798       N  0.56957592  0.57937376  0.51569479    -0.56700
C2799       C  0.61292759  0.98966448  0.43380493     0.27400
C2800       C  0.59810397  0.55078964  0.43769554     0.27400
C2801       C  0.59313142  0.98671097  0.08900679     0.27400
C2802       C  0.57240673  0.54591725  0.08751406     0.27400
C2803       C  0.62142614  0.93769282  0.48196236     0.36000
C2804       C  0.62227421  0.94144350  0.04269889     0.36000
C2805       C  0.58362916  0.60130814  0.48725703     0.36000
C2806       C  0.56933989  0.60112201  0.04801100     0.36000
C2807       C  0.62553760  0.00566505  0.39979407    -0.21400
C2808       C  0.61626968  0.54362828  0.40242444    -0.21400
C2809       C  0.57215983  0.99320318  0.12294794    -0.21400
C2810       C  0.55789379  0.53079994  0.12146008    -0.21400
C2811       C  0.64336840  0.90644366  0.49361019    -0.22500
C2812       C  0.64691111  0.91126473  0.03133834    -0.22500
C2813       C  0.58676953  0.63879003  0.50004180    -0.22500
C2814       C  0.57688467  0.63888578  0.03847205    -0.22500
C2815       C  0.62825501  0.95408038  0.44595350    -0.17900
C2816       C  0.60574431  0.58529878  0.45642223    -0.17900
C2817       C  0.58126681  0.58432909  0.08215892    -0.17800
C2818       C  0.61808482  0.95583483  0.08017062    -0.17800
H2819       H  0.64395194  0.99293551  0.37713052     0.15100
H2820       H  0.62715643  0.56478342  0.38264356     0.15100
H2821       H  0.56893713  0.97373675  0.14673308     0.15100
H2822       H  0.54242335  0.54639855  0.14454136     0.15100
H2823       H  0.65998862  0.88534300  0.47640427     0.13300
H2824       H  0.66503741  0.89352015  0.04828567     0.13300
H2825       H  0.60008681  0.66205414  0.48466168     0.13300
H2826       H  0.58173750  0.66208496  0.05797034     0.13300
H2827       H  0.58405444  0.01448575  0.48429589     0.26600
H2828       H  0.61068122  0.02298281  0.04376498     0.26600
N2829       N  0.62693389  0.87182843  0.24555694    -0.03000
C2830       C  0.62420617  0.83310061  0.23882765    -0.00400
C2831       C  0.65838112  0.81938866  0.22176049    -0.23300
C2832       C  0.68235501  0.84963547  0.21902056    -0.23500
C2833       C  0.66298217  0.88225180  0.23380594    -0.00500
H2834       H  0.66560815  0.78998291  0.21278672     0.13200
H2835       H  0.71159183  0.84746759  0.20826052     0.13300
N2836       N  0.88219685  0.60375498  0.25404107    -0.03000
C2837       C  0.86355029  0.57877556  0.23165594    -0.00400
C2838       C  0.87345075  0.58691443  0.19404712    -0.23300
C2839       C  0.89746314  0.61779713  0.19368107    -0.23500
C2840       C  0.90258736  0.62865277  0.23113470    -0.00500
H2841       H  0.86497987  0.57129192  0.16931140     0.13200
H2842       H  0.91069829  0.63038462  0.16842359     0.13300
N2843       N  0.61608358  0.60812487  0.24278860    -0.03000
C2844       C  0.65446163  0.59985363  0.24169364    -0.00400
C2845       C  0.67299381  0.63207432  0.22853416    -0.23300
C2846       C  0.64601907  0.65887892  0.21828232    -0.23500
C2847       C  0.61122532  0.64352082  0.22681555    -0.00500
H2848       H  0.70308209  0.63582912  0.22542585     0.13200
H2849       H  0.65122202  0.68757992  0.20782666     0.13300
N2850       N  0.88693791  0.87691267  0.26818448    -0.03000
C2851       C  0.86854368  0.89611733  0.24048892    -0.00400
C2852       C  0.89059676  0.89589000  0.20763739    -0.23300
C2853       C  0.92230426  0.87237907  0.21335742    -0.23500
C2854       C  0.91979263  0.86012269  0.25084340    -0.00500
H2855       H  0.88381754  0.91284596  0.18319952     0.13200
H2856       H  0.94392244  0.86324800  0.19182698     0.13300
N2857       N  0.47501127  0.58023696  0.41608484    -0.36200
N2858       N  0.52156874  0.51812024  0.37446869    -0.56700
N2859       N  0.46749147  0.95579702  0.38985295    -0.36200
N2860       N  0.91713831  0.51537266  0.41692206    -0.56700
C2861       C  0.49855765  0.60270495  0.39553063     0.27400
C2862       C  0.94174447  0.60059098  0.42106381     0.27400
C2863       C  0.48994106  0.93941813  0.36147110     0.27400
C2864       C  0.93530688  0.93570087  0.39157722     0.27400
C2865       C  0.54099856  0.54970919  0.36490008     0.36000
C2866       C  0.53915058  0.98877681  0.35406630     0.36000
C2867       C  0.89938182  0.54802454  0.42980907     0.36000
C2868       C  0.89297087  0.98664660  0.42082431     0.36000
C2869       C  0.48330662  0.64011368  0.39506696    -0.21400
C2870       C  0.94724333  0.63872150  0.41130634    -0.21400
C2871       C  0.47419367  0.90659515  0.34819481    -0.21400
C2872       C  0.94130068  0.90297616  0.36882112    -0.21400
C2873       C  0.57185831  0.53886469  0.34053784    -0.22500
C2874       C  0.57178847  0.00066789  0.33526777    -0.22500
C2875       C  0.86366759  0.53918030  0.44484349    -0.22500
C2876       C  0.85906613  0.00046496  0.43785313    -0.22500
C2877       C  0.52712838  0.58860698  0.36899030    -0.17900
C2878       C  0.90796027  0.58339634  0.41262976    -0.17900
C2879       C  0.89833775  0.95244815  0.39961175    -0.17800
C2880       C  0.52298235  0.95402323  0.34459848    -0.17800
H2881       H  0.49413504  0.66423256  0.37904406     0.15100
H2882       H  0.92532225  0.66105733  0.40872428     0.15100
H2883       H  0.48435139  0.88758850  0.32493312     0.15100
H2884       H  0.92215068  0.88106941  0.36266386     0.15100
H2885       H  0.59408856  0.55599858  0.32895449     0.13300
H2886       H  0.59254120  0.98435253  0.31732487     0.13300
H2887       H  0.84217612  0.55865418  0.45772312     0.13300
H2888       H  0.83332874  0.98485112  0.44279660     0.13300
H2889       H  0.47823266  0.55055195  0.41926188     0.26600
H2890       H  0.47333253  0.98029846  0.40524091     0.26600
O2891       O  0.75796452  0.90047550  0.19639969    -0.79700
O2892       O  0.80957070  0.53883689  0.22168237    -0.79700
O2893       O  0.74224221  0.54171308  0.17426708    -0.79700
O2894       O  0.83630148  0.95776723  0.25565902    -0.79700
O2895       O  0.75515406  0.59175004  0.21131167    -0.79800
O2896       O  0.80213902  0.90899681  0.24478341    -0.79700
O2897       O  0.83020856  0.53569625  0.27758202    -0.79700
O2898       O  0.75403612  0.95749585  0.16903998    -0.79700
C2899       C  0.76160024  0.92050229  0.16682504     1.10000
C2900       C  0.83411089  0.54900547  0.24410017     1.09900
C2901       C  0.75035462  0.57804150  0.17778422     1.10000
C2902       C  0.83414726  0.92239766  0.24721522     1.09900
O2903       O  0.74425000  0.90973277  0.27988318    -0.79700
O2904       O  0.70519067  0.56214500  0.26580739    -0.79800
O2905       O  0.68169507  0.94866816  0.21817200    -0.79700
O2906       O  0.76879054  0.51795989  0.33182445    -0.79700
O2907       O  0.76836720  0.57080211  0.29658964    -0.79700
O2908       O  0.71480917  0.91534647  0.25791269    -0.79700
O2909       O  0.78205986  0.93822366  0.31935981    -0.79700
O2910       O  0.67441145  0.53318140  0.22337153    -0.79700
Co2911     Co  0.75765019  0.94176484  0.23200992     1.51500
Co2912     Co  0.75610164  0.54653810  0.24354389     1.51700
Co2913     Co  0.71769024  0.49455282  0.20436160     1.51600
Co2914     Co  0.79954587  0.98750733  0.29251566     1.51500
O2915       O  0.75128683  0.99202731  0.25792622    -1.41600
C2916       C  0.76150971  0.90993347  0.31149888     1.09900
C2917       C  0.67662051  0.56167420  0.24619980     1.10000
C2918       C  0.68483380  0.91885054  0.23958545     1.09900
C2919       C  0.76694415  0.55446280  0.32996398     1.09900
C2920       C  0.85838281  0.88905808  0.33274059    -0.25900
C2921       C  0.88511677  0.89834196  0.30357659    -0.13900
C2922       C  0.89829937  0.93651912  0.30356936     0.36700
C2923       C  0.88611006  0.96198667  0.33322698    -0.25300
C2924       C  0.87235280  0.94699628  0.36786997    -0.14600
C2925       C  0.85295530  0.91266104  0.36567676     0.37800
N2926       N  0.82554155  0.90368234  0.39510248    -0.88800
H2927       H  0.84191850  0.86411134  0.32912965     0.18900
H2928       H  0.89351947  0.99159824  0.33192059     0.18900
N2929       N  0.92276015  0.94963649  0.27285334    -0.87800
H2930       H  0.80552452  0.92662286  0.39578247     0.36300
H2931       H  0.83838158  0.90378223  0.42121313     0.41300
H2932       H  0.90973980  0.97385111  0.26082045     0.41000
H2933       H  0.94770310  0.95836920  0.28444067     0.35900
C2934       C  0.52697128  0.60043459  0.30074750    -0.25900
C2935       C  0.53805639  0.61327684  0.33643188    -0.13900
C2936       C  0.57246187  0.63131618  0.33834475     0.36700
C2937       C  0.59983914  0.62539221  0.30865733    -0.25300
C2938       C  0.59181438  0.60380611  0.27587824    -0.14600
C2939       C  0.55442139  0.59304338  0.27126027     0.37800
N2940       N  0.54454706  0.57492622  0.23655068    -0.88800
H2941       H  0.49876090  0.59048412  0.29756641     0.18900
H2942       H  0.62676653  0.63887734  0.30997923     0.18900
N2943       N  0.57989231  0.65462849  0.37059380    -0.87800
H2944       H  0.52249369  0.59127754  0.22519332     0.36300
H2945       H  0.53397084  0.54802943  0.24341764     0.41300
H2946       H  0.56060500  0.67823291  0.37134106     0.41000
H2947       H  0.57395968  0.63879339  0.39525445     0.35900
C2948       C  0.87505290  0.61622635  0.35910091    -0.25900
C2949       C  0.90038354  0.58712060  0.37088299    -0.13900
C2950       C  0.92082202  0.56470675  0.34202766     0.36700
C2951       C  0.91426161  0.57079941  0.30372722    -0.25300
C2952       C  0.88685701  0.59769756  0.29335280    -0.14600
C2953       C  0.86436399  0.61787092  0.32115833     0.37800
N2954       N  0.83081000  0.63963567  0.31149675    -0.88800
H2955       H  0.86223859  0.63632729  0.37981929     0.18900
H2956       H  0.93109645  0.55480169  0.28174332     0.18900
N2957       N  0.95129380  0.53882656  0.35058617    -0.87800
H2958       H  0.80748910  0.62898990  0.32678795     0.36300
H2959       H  0.82545899  0.63678494  0.28265551     0.41300
H2960       H  0.97475942  0.54782792  0.33456396     0.41000
H2961       H  0.94696549  0.51151857  0.33972833     0.35900
C2962       C  0.56077879  0.89671192  0.32677143    -0.25900
C2963       C  0.54309898  0.93023787  0.31448640    -0.13900
C2964       C  0.54996992  0.94294074  0.27654993     0.36700
C2965       C  0.57918871  0.92452826  0.25405891    -0.25300
C2966       C  0.59943855  0.89309604  0.26859977    -0.14600
C2967       C  0.58923454  0.87837549  0.30440620     0.37800
N2968       N  0.60936064  0.84529983  0.31816860    -0.88800
H2969       H  0.55504917  0.88721610  0.35541348     0.18900
H2970       H  0.58585158  0.93455232  0.22553332     0.18900
N2971       N  0.52955133  0.97528449  0.26116783    -0.87800
H2972       H  0.59855300  0.83793285  0.34510868     0.36300
H2973       H  0.63736327  0.85310343  0.32029895     0.41300
H2974       H  0.50869883  0.98642854  0.28086958     0.41000
H2975       H  0.51530304  0.96520208  0.23793385     0.35900
C2976       C  0.69733321  0.93812675  0.44000718    -0.25900
C2977       C  0.66185315  0.93762566  0.42347829    -0.13900
C2978       C  0.65833975  0.91761114  0.38912043     0.36700
C2979       C  0.68959373  0.89709789  0.37304032    -0.25300
C2980       C  0.72361573  0.89415994  0.39169850    -0.14600
C2981       C  0.72722187  0.91384653  0.42614543     0.37800
N2982       N  0.75960992  0.90745039  0.44835713    -0.88800
H2983       H  0.70009364  0.95311708  0.46681700     0.18900
H2984       H  0.68708537  0.88187454  0.34633536     0.18900
N2985       N  0.62368350  0.91710004  0.37004615    -0.87800
H2986       H  0.75032496  0.89579991  0.47447585     0.36300
H2987       H  0.77074457  0.93424610  0.45419635     0.41300
H2988       H  0.60122768  0.93133609  0.38545358     0.41000
H2989       H  0.62818085  0.93195385  0.34449390     0.35900
C2990       C  0.65200544  0.62411143  0.42032104    -0.25900
C2991       C  0.64574018  0.59674549  0.44899308    -0.13900
C2992       C  0.67519326  0.56840602  0.45525423     0.36700
C2993       C  0.70896902  0.56881627  0.43281808    -0.25300
C2994       C  0.71251794  0.59339502  0.40165267    -0.14600
C2995       C  0.68292800  0.61890992  0.39404038     0.37800
N2996       N  0.68366681  0.63779467  0.35829231    -0.88800
H2997       H  0.63061424  0.64594987  0.41525598     0.18900
H2998       H  0.73251849  0.54928598  0.43882456     0.18900
N2999       N  0.66845034  0.53538410  0.47897290    -0.87800
H3000       H  0.68375682  0.61649965  0.33701927     0.36300
H3001       H  0.70978770  0.65081848  0.35496347     0.41300
H3002       H  0.66259868  0.54393481  0.50699994     0.41000
H3003       H  0.69276964  0.51737811  0.47928738     0.35900
C3004       C  0.67160720  0.59708485  0.13704338    -0.25900
C3005       C  0.69841346  0.60377004  0.10730618    -0.13900
C3006       C  0.68800853  0.59794178  0.06984168     0.36700
C3007       C  0.64971432  0.59512734  0.06268712    -0.25300
C3008       C  0.62147323  0.59178084  0.09233163    -0.14600
C3009       C  0.63380321  0.58964548  0.13010545     0.37800
N3010       N  0.60820617  0.58453955  0.16247782    -0.88800
H3011       H  0.67999778  0.59790418  0.16578129     0.18900
H3012       H  0.64230277  0.59523514  0.03350614     0.18900
N3013       N  0.71659860  0.59156988  0.03965062    -0.87800
H3014       H  0.60597338  0.55510439  0.16750803     0.36300
H3015       H  0.58174468  0.59775868  0.15811989     0.41300
H3016       H  0.70812046  0.60590009  0.01528269     0.41000
H3017       H  0.71800803  0.56212376  0.03310451     0.35900
C3018       C  0.68535084  0.96339329  0.08617694    -0.25900
C3019       C  0.65164323  0.94914835  0.10274331    -0.13900
C3020       C  0.65361319  0.91565936  0.12459731     0.36700
C3021       C  0.68684450  0.89226483  0.12264526    -0.25300
C3022       C  0.71825480  0.90274299  0.09987833    -0.14600
C3023       C  0.71813257  0.93954580  0.08299449     0.37800
N3024       N  0.75145009  0.95248902  0.06261721    -0.88800
H3025       H  0.68442836  0.98985599  0.06990421     0.18900
H3026       H  0.68858520  0.86598708  0.13899497     0.18900
N3027       N  0.62119651  0.90473473  0.14718787    -0.87800
H3028       H  0.75918642  0.97813354  0.07543200     0.36300
H3029       H  0.74449960  0.95867249  0.03465358     0.41300
H3030       H  0.61566805  0.92642959  0.16767901     0.41000
H3031       H  0.62817120  0.87973570  0.16203224     0.35900
C3032       C  0.94326132  0.76267431  0.41481334    -0.30700
C3033       C  0.91043892  0.76732190  0.39542869    -0.13900
C3034       C  0.89047476  0.80273995  0.39496414     0.36700
C3035       C  0.90384997  0.83396148  0.41409477    -0.25300
C3036       C  0.93721185  0.83050473  0.43322446    -0.14600
C3037       C  0.95676565  0.79386541  0.43423921     0.37800
N3038       N  0.98980998  0.78777977  0.45549782    -0.88800
H3039       H  0.95776198  0.73461867  0.41558687     0.18900
H3040       H  0.88892869  0.86138314  0.41272028     0.18900
N3041       N  0.85581528  0.80596014  0.37586179    -0.87800
H3042       H  0.98429026  0.76567523  0.47486219     0.36300
H3043       H  0.01182201  0.77781597  0.43641217     0.41300
H3044       H  0.86247391  0.80455010  0.34648775     0.41000
H3045       H  0.84141210  0.83190969  0.38302496     0.35900
C3046       C  0.62826743  0.81951912  0.42862340    -0.25900
C3047       C  0.60295209  0.80917415  0.45819242    -0.13900
C3048       C  0.58982250  0.77154080  0.45960369     0.36700
C3049       C  0.59515479  0.74753447  0.42757520    -0.25300
C3050       C  0.61543974  0.76013610  0.39515365    -0.14600
C3051       C  0.63474235  0.79539256  0.39703839     0.37800
N3052       N  0.66144453  0.80731631  0.36756389    -0.88800
H3053       H  0.63918517  0.84819649  0.42770918     0.18900
H3054       H  0.58501631  0.71844898  0.42853304     0.18900
N3055       N  0.57140935  0.75773443  0.49369660    -0.87800
H3056       H  0.66095819  0.79057855  0.34283196     0.36300
H3057       H  0.68855347  0.80465020  0.37780574     0.41300
H3058       H  0.54569781  0.74639073  0.48682141     0.41000
H3059       H  0.58830990  0.73486602  0.50342666     0.35900
C3060       C  0.89865441  0.84827034  0.12039037    -0.25900
C3061       C  0.91874684  0.85374089  0.08576188    -0.13900
C3062       C  0.92689655  0.82062158  0.06223318     0.36700
C3063       C  0.91221360  0.78475015  0.07211976    -0.25300
C3064       C  0.88972931  0.78082479  0.10541516    -0.14600
C3065       C  0.88323585  0.81271454  0.13015005     0.37800
N3066       N  0.85941067  0.80935630  0.16422691    -0.88800
H3067       H  0.89292355  0.87244780  0.13852299     0.18900
H3068       H  0.91804682  0.75995598  0.05346003     0.18900
N3069       N  0.95006634  0.82272212  0.02806117    -0.87800
H3070       H  0.83611145  0.82857555  0.16285089     0.36300
H3071       H  0.87464797  0.81752213  0.18743850     0.41300
H3072       H  0.93373408  0.81251518  0.00655659     0.41000
H3073       H  0.97309897  0.80325859  0.03003314     0.35900
C3074       C  0.59056221  0.79595545  0.13570989    -0.25900
C3075       C  0.58231079  0.77316223  0.10369389    -0.13900
C3076       C  0.54646024  0.77997931  0.08790581     0.36700
C3077       C  0.52628457  0.81453719  0.09656955    -0.25300
C3078       C  0.54114403  0.84149341  0.12082837    -0.14600
C3079       C  0.56702760  0.82821981  0.14615296     0.37800
N3080       N  0.56695986  0.84599880  0.18285070    -0.88800
H3081       H  0.61337007  0.78702252  0.15343945     0.18900
H3082       H  0.50264544  0.82313395  0.08013811     0.18900
N3083       N  0.52940391  0.75232621  0.06414292    -0.87800
H3084       H  0.54097818  0.84014880  0.19691464     0.36300
H3085       H  0.56642862  0.87587364  0.18005769     0.41300
H3086       H  0.50415262  0.74427926  0.07829658     0.41000
H3087       H  0.54634822  0.72717933  0.06045495     0.35900
O3088       O  0.74685210  0.80198839  0.56814044    -0.79700
O3089       O  0.72835874  0.72592654  0.89174741    -0.79700
O3090       O  0.78933953  0.81155205  0.94245755    -0.79700
O3091       O  0.67037514  0.73748887  0.52540729    -0.79700
O3092       O  0.73247674  0.79158472  0.93383981    -0.79800
O3093       O  0.69202790  0.75482537  0.58052469    -0.79700
O3094       O  0.68317337  0.72422110  0.93846648    -0.79700
O3095       O  0.78181733  0.82622644  0.52139721    -0.79700
C3096       C  0.76601958  0.82925693  0.55480650     1.10000
C3097       C  0.69345680  0.72356429  0.90154628     1.09900
C3098       C  0.75875500  0.81434318  0.92428041     1.10000
C3099       C  0.66517679  0.74162777  0.56237869     1.09900
O3100       O  0.75286505  0.70972178  0.57167560    -0.79700
O3101       O  0.79923434  0.74793622  0.90979657    -0.79800
O3102       O  0.82866010  0.75908984  0.53908933    -0.79700
O3103       O  0.72891434  0.65710884  0.95748796    -0.79700
O3104       O  0.77745254  0.68487699  0.93439798    -0.79700
O3105       O  0.77739211  0.74016773  0.57396159    -0.79700
O3106       O  0.72406074  0.66944001  0.53600419    -0.79700
O3107       O  0.83862606  0.74327403  0.95581446    -0.79700
Co3108     Co  0.73189743  0.75427977  0.54090378     1.51500
Co3109     Co  0.75114924  0.73659488  0.93822173     1.51700
Co3110     Co  0.80541081  0.78086745  0.99016563     1.51600
Co3111     Co  0.70873608  0.70295712  0.48999710     1.51500
O3112       O  0.76074857  0.74061172  0.49246716    -1.41600
C3113       C  0.74269982  0.67519852  0.56563288     1.09900
C3114       C  0.83202636  0.73930937  0.92044825     1.10000
C3115       C  0.81361744  0.74658595  0.57076193     1.09900
C3116       C  0.75883071  0.65518534  0.93649308     1.09900
N3117       N  0.59961718  0.73552987  0.60064688    -0.03000
C3118       C  0.63399146  0.72195196  0.58465463    -0.00400
C3119       C  0.64237968  0.68702987  0.60098469    -0.23300
C3120       C  0.61287892  0.67901855  0.62643696    -0.23500
C3121       C  0.58624898  0.70843359  0.62481361    -0.00500
H3122       H  0.66949150  0.67198643  0.59852236     0.13200
H3123       H  0.61336515  0.65792289  0.64850520     0.13300
N3124       N  0.87342710  0.74451293  0.61442559    -0.03000
C3125       C  0.83730343  0.73517308  0.60511293    -0.00400
C3126       C  0.82245046  0.71291622  0.63441581    -0.23300
C3127       C  0.85066558  0.70440008  0.65896437    -0.23500
C3128       C  0.88234955  0.72364265  0.64636780    -0.00500
H3129       H  0.79332071  0.70473646  0.63853749     0.13200
H3130       H  0.84717299  0.68873191  0.68540620     0.13300
N3131       N  0.62878549  0.73183071  0.86783512    -0.03000
C3132       C  0.61694784  0.72615885  0.83105293    -0.00400
C3133       C  0.64900747  0.71430617  0.80880371    -0.23300
C3134       C  0.67956539  0.71271936  0.83135322    -0.23500
C3135       C  0.66643383  0.72074205  0.86849865    -0.00500
H3136       H  0.65084097  0.70975697  0.77827397     0.13200
H3137       H  0.70869942  0.70670322  0.82128311     0.13300
N3138       N  0.89485559  0.73512273  0.87857541    -0.03000
C3139       C  0.90310465  0.72406538  0.84147120    -0.00400
C3140       C  0.87188183  0.70635346  0.82876658    -0.23300
C3141       C  0.84492044  0.70571797  0.85831401    -0.23500
C3142       C  0.85943271  0.72305496  0.88935248    -0.00500
H3143       H  0.86727622  0.69859102  0.79956030     0.13200
H3144       H  0.81587261  0.69743755  0.85613988     0.13300
N3145       N  0.49460224  0.90906535  0.57615465    -0.36200
N3146       N  0.94692930  0.90361578  0.50830097    -0.56700
N3147       N  0.51594006  0.86900001  0.97228162    -0.36200
N3148       N  0.56236020  0.87494595  0.53576060    -0.56700
C3149       C  0.95892764  0.91137912  0.59148399     0.27400
C3150       C  0.51794516  0.90551235  0.60514889     0.27400
C3151       C  0.99149409  0.86985613  0.94408856     0.27400
C3152       C  0.54981894  0.85622710  0.95660012     0.27400
C3153       C  0.92018377  0.90567244  0.53715064     0.36000
C3154       C  0.93085247  0.88717404  0.97867385     0.36000
C3155       C  0.57468891  0.87498443  0.57125225     0.36000
C3156       C  0.58435283  0.84893791  0.01530765     0.36000
C3157       C  0.95997336  0.91638102  0.63031633    -0.21400
C3158       C  0.49723017  0.91268211  0.63921576    -0.21400
C3159       C  0.01029575  0.85830081  0.91023713    -0.21400
C3160       C  0.54682897  0.85031596  0.91798612    -0.21400
C3161       C  0.88547850  0.89763770  0.52355381    -0.22500
C3162       C  0.89213125  0.88465504  0.98697283    -0.22500
C3163       C  0.60739504  0.85124473  0.57171742    -0.22500
C3164       C  0.61275214  0.83366674  0.03663287    -0.22500
C3165       C  0.92908422  0.89411301  0.57380997    -0.17900
C3166       C  0.54898526  0.87921088  0.60327616    -0.17900
C3167       C  0.57952458  0.84014339  0.97722421    -0.17800
C3168       C  0.95253610  0.86538605  0.95065452    -0.17800
H3169       H  0.93623611  0.91889090  0.65037215     0.15100
H3170       H  0.50701843  0.90924976  0.66773761     0.15100
H3171       H  0.99782343  0.84855066  0.88463090     0.15100
H3172       H  0.56643324  0.83521528  0.89842334     0.15100
H3173       H  0.85917228  0.89549380  0.54007906     0.13300
H3174       H  0.87107123  0.87032247  0.97163712     0.13300
H3175       H  0.62483630  0.84563074  0.59547929     0.13300
H3176       H  0.63523560  0.81301631  0.02769708     0.13300
H3177       H  0.50155258  0.90257325  0.54802991     0.26600
H3178       H  0.50749809  0.86556953  0.00062740     0.26600
O3179       O  0.57535053  0.72816446  0.68762656    -0.79700
O3180       O  0.92449746  0.79070595  0.75736745    -0.79700
O3181       O  0.94530402  0.70741133  0.67263618    -0.79700
O3182       O  0.55937962  0.81046330  0.76728597    -0.79700
O3183       O  0.90762663  0.75226741  0.70113148    -0.79800
O3184       O  0.59449261  0.77692925  0.72453173    -0.79700
O3185       O  0.97649976  0.82024659  0.76469798    -0.79700
O3186       O  0.52472411  0.71654431  0.65862843    -0.79700
C3187       C  0.56031460  0.71789179  0.65827491     1.10000
C3188       C  0.94073263  0.82218428  0.76076724     1.09900
C3189       C  0.91417273  0.72936423  0.67333061     1.10000
C3190       C  0.59077531  0.80623742  0.74500961     1.09900
O3191       O  0.58154079  0.72732567  0.77434463    -0.79700
O3192       O  0.92080709  0.69595018  0.74664024    -0.79800
O3193       O  0.54524398  0.65953665  0.71421926    -0.79700
O3194       O  0.96316139  0.75603087  0.82117457    -0.79700
O3195       O  0.92807607  0.72673658  0.77821768    -0.79700
O3196       O  0.57830022  0.70215899  0.74545656    -0.79700
O3197       O  0.54807933  0.74962611  0.82438324    -0.79700
O3198       O  0.96606373  0.65253715  0.73280599    -0.79700
Co3199     Co  0.55002163  0.75153613  0.73319257     1.51500
Co3200     Co  0.95158695  0.74519505  0.72979883     1.51700
Co3201     Co  0.99628872  0.68911214  0.70070021     1.51600
Co3202     Co  0.00989788  0.77829385  0.78991510     1.51500
O3203       O  0.00181400  0.73073726  0.74823815    -1.41600
C3204       C  0.57976281  0.73512041  0.81032947     1.09900
C3205       C  0.93106858  0.65992220  0.74062001     1.10000
C3206       C  0.57548955  0.66873393  0.73017471     1.09900
C3207       C  0.93402392  0.73635244  0.81277005     1.09900
N3208       N  0.75374768  0.88393844  0.60582665    -0.03000
C3209       C  0.77613298  0.90077556  0.63068729    -0.00400
C3210       C  0.81318177  0.88996970  0.62195021    -0.23300
C3211       C  0.81334570  0.86500510  0.59085258    -0.23500
C3212       C  0.77641544  0.86187908  0.58067867    -0.00500
H3213       H  0.83672353  0.89829002  0.63786752     0.13200
H3214       H  0.83736241  0.84840453  0.57836325     0.13300
N3215       N  0.73553020  0.61685066  0.61464612    -0.03000
C3216       C  0.75615068  0.64218457  0.59192716    -0.00400
C3217       C  0.79309351  0.63976105  0.60255871    -0.23300
C3218       C  0.79445272  0.61712889  0.63468419    -0.23500
C3219       C  0.75895298  0.60293357  0.64233405    -0.00500
H3220       H  0.81658323  0.65466585  0.58927844     0.13200
H3221       H  0.81886380  0.61244540  0.65119512     0.13300
N3222       N  0.74953508  0.60191631  0.88718890    -0.03000
C3223       C  0.77108869  0.62035942  0.91224920    -0.00400
C3224       C  0.80653702  0.60351860  0.91089646    -0.23300
C3225       C  0.80746519  0.57469584  0.88313461    -0.23500
C3226       C  0.77297080  0.57611563  0.86681319    -0.00500
H3227       H  0.82922395  0.61219944  0.92811110     0.13200
H3228       H  0.83134589  0.55583118  0.87409462     0.13300
N3229       N  0.75351071  0.87054895  0.87438704    -0.03000
C3230       C  0.76252813  0.87363309  0.83598213    -0.00400
C3231       C  0.77400861  0.83767126  0.82163327    -0.23300
C3232       C  0.77285741  0.81228943  0.85190270    -0.23500
C3233       C  0.76037439  0.83284465  0.88458379    -0.00500
H3234       H  0.78322973  0.83073649  0.79238364     0.13200
H3235       H  0.78085068  0.78194453  0.84997893     0.13300
N3236       N  0.59362255  0.01685545  0.95607171    -0.36200
N3237       N  0.60571396  0.95713521  0.01250854    -0.56700
N3238       N  0.59219811  0.01825922  0.56744154    -0.36200
N3239       N  0.56963901  0.57939005  0.01578625    -0.56700
C3240       C  0.61291622  0.98959556  0.93388014     0.27400
C3241       C  0.59809552  0.55070844  0.93780058     0.27400
C3242       C  0.59304975  0.98668530  0.58898571     0.27400
C3243       C  0.57224561  0.54587781  0.58749178     0.27400
C3244       C  0.62158409  0.93766999  0.98203603     0.36000
C3245       C  0.62222075  0.94149841  0.54261745     0.36000
C3246       C  0.58371511  0.60127270  0.98732348     0.36000
C3247       C  0.56918517  0.60108194  0.54794219     0.36000
C3248       C  0.62543202  0.00559667  0.89983877    -0.21400
C3249       C  0.61617960  0.54355168  0.90249394    -0.21400
C3250       C  0.57218393  0.99318754  0.62298466    -0.21400
C3251       C  0.55786433  0.53076620  0.62150031    -0.21400
C3252       C  0.64356961  0.90645308  0.99368813    -0.22500
C3253       C  0.64681991  0.91130237  0.53123598    -0.22500
C3254       C  0.58694462  0.63875487  0.00006664    -0.22500
C3255       C  0.57666704  0.63887216  0.53844273    -0.22500
C3256       C  0.62831597  0.95403870  0.94600650    -0.17900
C3257       C  0.60579447  0.58519998  0.95650884    -0.17900
C3258       C  0.58111101  0.58429361  0.58209607    -0.17800
C3259       C  0.61803622  0.95584085  0.58010857    -0.17800
H3260       H  0.64380338  0.99287646  0.87713708     0.15100
H3261       H  0.62704495  0.56470828  0.88270345     0.15100
H3262       H  0.56906990  0.97374487  0.64680184     0.15100
H3263       H  0.54243073  0.54635552  0.64460945     0.15100
H3264       H  0.66022478  0.88537267  0.97648452     0.13300
H3265       H  0.66497578  0.89356151  0.54815794     0.13300
H3266       H  0.60028761  0.66198240  0.98465131     0.13300
H3267       H  0.58146596  0.66206471  0.55797413     0.13300
H3268       H  0.58418508  0.01443565  0.98444399     0.26600
H3269       H  0.61042153  0.02294572  0.54366838     0.26600
N3270       N  0.62699335  0.87179293  0.74549312    -0.03000
C3271       C  0.62425325  0.83306709  0.73877366    -0.00400
C3272       C  0.65844132  0.81934395  0.72173388    -0.23300
C3273       C  0.68242436  0.84959110  0.71900157    -0.23500
C3274       C  0.66304159  0.88221114  0.73376082    -0.00500
H3275       H  0.66566571  0.78993754  0.71276103     0.13200
H3276       H  0.71166752  0.84742884  0.70825631     0.13300
N3277       N  0.88223309  0.60370135  0.75402467    -0.03000
C3278       C  0.86354631  0.57878875  0.73160371    -0.00400
C3279       C  0.87341051  0.58701677  0.69400387    -0.23300
C3280       C  0.89742816  0.61789390  0.69368520    -0.23500
C3281       C  0.90258947  0.62865746  0.73115489    -0.00500
H3282       H  0.86490923  0.57146150  0.66924052     0.13200
H3283       H  0.91063836  0.63054206  0.66844671     0.13300
N3284       N  0.61600400  0.60810161  0.74275797    -0.03000
C3285       C  0.65438398  0.59982854  0.74167356    -0.00400
C3286       C  0.67292148  0.63202069  0.72845129    -0.23300
C3287       C  0.64595832  0.65881715  0.71817319    -0.23500
C3288       C  0.61116567  0.64348918  0.72676225    -0.00500
H3289       H  0.70300949  0.63575779  0.72531179     0.13200
H3290       H  0.65116953  0.68749596  0.70766227     0.13300
N3291       N  0.88695478  0.87688184  0.76805718    -0.03000
C3292       C  0.86852672  0.89612162  0.74041390    -0.00400
C3293       C  0.89044336  0.89574768  0.70748025    -0.23300
C3294       C  0.92210528  0.87213500  0.71311846    -0.23500
C3295       C  0.91972153  0.85999922  0.75064669    -0.00500
H3296       H  0.88361305  0.91268967  0.68305129     0.13200
H3297       H  0.94361842  0.86288903  0.69152780     0.13300
N3298       N  0.47498193  0.58013180  0.91610276    -0.36200
N3299       N  0.52158038  0.51804653  0.87443793    -0.56700
N3300       N  0.46758905  0.95568466  0.88981443    -0.36200
N3301       N  0.91720280  0.51521594  0.91710738    -0.56700
C3302       C  0.49845739  0.60261375  0.89548095     0.27400
C3303       C  0.94169672  0.60045160  0.92111904     0.27400
C3304       C  0.49005056  0.93932418  0.86143119     0.27400
C3305       C  0.93540948  0.93558782  0.89150114     0.27400
C3306       C  0.54096729  0.54966239  0.86487540     0.36000
C3307       C  0.53920052  0.98873124  0.85403283     0.36000
C3308       C  0.89931737  0.54787794  0.92981643     0.36000
C3309       C  0.89297614  0.98650070  0.92073783     0.36000
C3310       C  0.48315724  0.64000223  0.89501140    -0.21400
C3311       C  0.94714158  0.63859064  0.91135688    -0.21400
C3312       C  0.47432164  0.90649952  0.84813400    -0.21400
C3313       C  0.94142146  0.90286714  0.86873919    -0.21400
C3314       C  0.57184955  0.53886011  0.84052501    -0.22500
C3315       C  0.57182415  0.00066637  0.83524105    -0.22500
C3316       C  0.86348905  0.53902583  0.94451538    -0.22500
C3317       C  0.85893534  0.00032828  0.93744680    -0.22500
C3318       C  0.52702209  0.58853542  0.86892800    -0.17900
C3319       C  0.90794669  0.58323235  0.91262568    -0.17900
C3320       C  0.89843835  0.95233491  0.89948989    -0.17800
C3321       C  0.52307010  0.95396503  0.84455362    -0.17800
H3322       H  0.49391272  0.66411826  0.87893332     0.15100
H3323       H  0.92519043  0.66090289  0.90880593     0.15100
H3324       H  0.48448907  0.88750800  0.82486392     0.15100
H3325       H  0.92228168  0.88095332  0.86256366     0.15100
H3326       H  0.59406220  0.55602615  0.82895754     0.13300
H3327       H  0.59260344  0.98437742  0.81730468     0.13300
H3328       H  0.84189870  0.55848287  0.95722813     0.13300
H3329       H  0.83314193  0.98474102  0.94209061     0.13300
H3330       H  0.47824542  0.55045029  0.91928592     0.26600
H3331       H  0.47340180  0.98019206  0.90520520     0.26600
O3332       O  0.75804340  0.90053367  0.69633414    -0.79700
O3333       O  0.80955594  0.53885561  0.72159671    -0.79700
O3334       O  0.74205613  0.54177116  0.67424327    -0.79700
O3335       O  0.83631052  0.95778728  0.75565032    -0.79700
O3336       O  0.75515104  0.59177334  0.71124970    -0.79800
O3337       O  0.80214552  0.90902300  0.74477996    -0.79700
O3338       O  0.83016973  0.53572376  0.77750996    -0.79700
O3339       O  0.75394112  0.95755821  0.66899171    -0.79700
C3340       C  0.76159137  0.92057945  0.66676028     1.10000
C3341       C  0.83409328  0.54901898  0.74402293     1.09900
C3342       C  0.75024518  0.57808038  0.67774100     1.10000
C3343       C  0.83415333  0.92241824  0.74719876     1.09900
O3344       O  0.74429819  0.90972292  0.77984882    -0.79700
O3345       O  0.70518300  0.56220497  0.76574334    -0.79800
O3346       O  0.68166861  0.94865430  0.71817076    -0.79700
O3347       O  0.76872077  0.51802108  0.83175463    -0.79700
O3348       O  0.76834733  0.57084829  0.79649922    -0.79700
O3349       O  0.71485481  0.91533305  0.75785458    -0.79700
O3350       O  0.78203404  0.93825925  0.81936478    -0.79700
O3351       O  0.67430772  0.53312746  0.72345555    -0.79700
Co3352     Co  0.75768185  0.94179548  0.73197890     1.51500
Co3353     Co  0.75608615  0.54656266  0.74346795     1.51700
Co3354     Co  0.71760131  0.49456853  0.70436260     1.51600
Co3355     Co  0.79951554  0.98754256  0.79248213     1.51500
O3356       O  0.75125898  0.99205309  0.75788978    -1.41600
C3357       C  0.76152396  0.90993755  0.81148842     1.09900
C3358       C  0.67655958  0.56166786  0.74621340     1.10000
C3359       C  0.68486631  0.91882043  0.73954717     1.09900
C3360       C  0.76688989  0.55452412  0.82987903     1.09900
C3361       C  0.85849083  0.88892701  0.83263942    -0.25900
C3362       C  0.88521843  0.89823163  0.80347544    -0.13900
C3363       C  0.89839371  0.93640955  0.80347306     0.36700
C3364       C  0.88618359  0.96186256  0.83312411    -0.25300
C3365       C  0.87245522  0.94685541  0.86776222    -0.14600
C3366       C  0.85306703  0.91252047  0.86557910     0.37800
N3367       N  0.82559583  0.90359287  0.89497030    -0.88800
H3368       H  0.84198548  0.86400895  0.82899910     0.18900
H3369       H  0.89350437  0.99149788  0.83179544     0.18900
N3370       N  0.92281031  0.94956124  0.77273609    -0.87800
H3371       H  0.80557160  0.92652409  0.89556859     0.36300
H3372       H  0.83837256  0.90375570  0.92111340     0.41300
H3373       H  0.90974668  0.97375851  0.76071472     0.41000
H3374       H  0.94774960  0.95833769  0.78430127     0.35900
C3375       C  0.52685149  0.60030957  0.80067426    -0.25900
C3376       C  0.53790324  0.61320041  0.83635411    -0.13900
C3377       C  0.57227265  0.63130987  0.83826357     0.36700
C3378       C  0.59967128  0.62539930  0.80859630    -0.25300
C3379       C  0.59169867  0.60377860  0.77582507    -0.14600
C3380       C  0.55431661  0.59297489  0.77118701     0.37800
N3381       N  0.54446069  0.57488348  0.73645900    -0.88800
H3382       H  0.49866160  0.59030195  0.79749178     0.18900
H3383       H  0.62657921  0.63892233  0.80992757     0.18900
N3384       N  0.57966145  0.65466747  0.87049634    -0.87800
H3385       H  0.52240856  0.59124429  0.72511004     0.36300
H3386       H  0.53388135  0.54798287  0.74330059     0.41300
H3387       H  0.56033940  0.67824295  0.87121969     0.41000
H3388       H  0.57376247  0.63884664  0.89517306     0.35900
C3389       C  0.87513155  0.61616682  0.85908331    -0.25900
C3390       C  0.90038408  0.58698867  0.87087460    -0.13900
C3391       C  0.92079437  0.56454906  0.84202310     0.36700
C3392       C  0.91424701  0.57065730  0.80371492    -0.25300
C3393       C  0.88688052  0.59760216  0.79333709    -0.14600
C3394       C  0.86443082  0.61781837  0.82114395     0.37800
N3395       N  0.83090292  0.63962762  0.81148319    -0.88800
H3396       H  0.86236801  0.63630922  0.87979253     0.18900
H3397       H  0.93107368  0.55465167  0.78173106     0.18900
N3398       N  0.95126113  0.53866634  0.85059654    -0.87800
H3399       H  0.80756369  0.62902671  0.82677868     0.36300
H3400       H  0.82554089  0.63678259  0.78264433     0.41300
H3401       H  0.97472007  0.54762691  0.83453400     0.41000
H3402       H  0.94691771  0.51134204  0.83979515     0.35900
C3403       C  0.56084471  0.89665396  0.82669824    -0.25900
C3404       C  0.54319736  0.93020696  0.81443047    -0.13900
C3405       C  0.55011182  0.94295237  0.77651272     0.36700
C3406       C  0.57933652  0.92454772  0.75403273    -0.25300
C3407       C  0.59952493  0.89306620  0.76854828    -0.14600
C3408       C  0.58930014  0.87832159  0.80433860     0.37800
N3409       N  0.60940018  0.84522095  0.81808613    -0.88800
H3410       H  0.55508315  0.88712571  0.85532442     0.18900
H3411       H  0.58604668  0.93460946  0.72552907     0.18900
N3412       N  0.52974462  0.97533829  0.76114637    -0.87800
H3413       H  0.59855425  0.83780768  0.84499886     0.36300
H3414       H  0.63739813  0.85301850  0.82026696     0.41300
H3415       H  0.50883313  0.98642940  0.78081404     0.41000
H3416       H  0.51556959  0.96532067  0.73783573     0.35900
C3417       C  0.69739864  0.93820424  0.93996789    -0.25900
C3418       C  0.66189858  0.93763405  0.92348641    -0.13900
C3419       C  0.65836713  0.91760078  0.88913994     0.36700
C3420       C  0.68961589  0.89708306  0.87306519    -0.25300
C3421       C  0.72365438  0.89419915  0.89169893    -0.14600
C3422       C  0.72728892  0.91393344  0.92610963     0.37800
N3423       N  0.75969616  0.90757114  0.94830382    -0.88800
H3424       H  0.70017290  0.95321726  0.96676083     0.18900
H3425       H  0.68709173  0.88181193  0.84638878     0.18900
N3426       N  0.62370177  0.91706592  0.87007812    -0.87800
H3427       H  0.75043029  0.89596856  0.97445162     0.36300
H3428       H  0.77084733  0.93437317  0.95408098     0.41300
H3429       H  0.60125322  0.93132379  0.88547599     0.41000
H3430       H  0.62819249  0.93188825  0.84450554     0.35900
C3431       C  0.65195319  0.62399939  0.92033360    -0.25900
C3432       C  0.64576868  0.59663902  0.94901751    -0.13900
C3433       C  0.67525166  0.56832900  0.95525716     0.36700
C3434       C  0.70900444  0.56877746  0.93279037    -0.25300
C3435       C  0.71248745  0.59336497  0.90162251    -0.14600
C3436       C  0.68285537  0.61884118  0.89403728     0.37800
N3437       N  0.68349565  0.63768708  0.85827226    -0.88800
H3438       H  0.63047404  0.64573748  0.91522083     0.18900
H3439       H  0.73258805  0.54928270  0.93877914     0.18900
N3440       N  0.66857148  0.53531452  0.97900315    -0.87800
H3441       H  0.68353813  0.61636688  0.83702883     0.36300
H3442       H  0.70961031  0.65070817  0.85486526     0.41300
H3443       H  0.66268525  0.54389230  0.00701551     0.41000
H3444       H  0.69294048  0.51738469  0.97936270     0.35900
C3445       C  0.67147334  0.59702380  0.63696914    -0.25900
C3446       C  0.69827537  0.60377707  0.60723770    -0.13900
C3447       C  0.68785237  0.59801204  0.56976594     0.36700
C3448       C  0.64955560  0.59515952  0.56262219    -0.25300
C3449       C  0.62131883  0.59177368  0.59226529    -0.14600
C3450       C  0.63365267  0.58962703  0.63003474     0.37800
N3451       N  0.60801957  0.58469626  0.66241612    -0.88800
H3452       H  0.67986264  0.59781640  0.66570895     0.18900
H3453       H  0.64213860  0.59528825  0.53344388     0.18900
N3454       N  0.71642722  0.59175954  0.53954029    -0.87800
H3455       H  0.60587969  0.55529360  0.66768828     0.36300
H3456       H  0.58152373  0.59777603  0.65793403     0.41300
H3457       H  0.70787346  0.60609008  0.51520041     0.41000
H3458       H  0.71792160  0.56232200  0.53295704     0.35900
C3459       C  0.68528551  0.96339548  0.58615097    -0.25900
C3460       C  0.65159027  0.94910074  0.60269002    -0.13900
C3461       C  0.65359467  0.91556115  0.62448071     0.36700
C3462       C  0.68686144  0.89222277  0.62252979    -0.25300
C3463       C  0.71825416  0.90276724  0.59978736    -0.14600
C3464       C  0.71807728  0.93956863  0.58290676     0.37800
N3465       N  0.75133269  0.95251265  0.56242085    -0.88800
H3466       H  0.68433857  0.98987719  0.56990984     0.18900
H3467       H  0.68864222  0.86593479  0.63886240     0.18900
N3468       N  0.62119085  0.90453203  0.64702405    -0.87800
H3469       H  0.75908558  0.97818298  0.57517222     0.36300
H3470       H  0.74429258  0.95865418  0.53447415     0.41300
H3471       H  0.61562131  0.92616374  0.66757104     0.41000
H3472       H  0.62819475  0.87950103  0.66180813     0.35900
C3473       C  0.94315757  0.76275596  0.91479204    -0.30700
C3474       C  0.91030644  0.76740010  0.89546137    -0.13900
C3475       C  0.89033079  0.80281482  0.89502557     0.36700
C3476       C  0.90376724  0.83405087  0.91409522    -0.25300
C3477       C  0.93715492  0.83058678  0.93319362    -0.14600
C3478       C  0.95667654  0.79393494  0.93421586     0.37800
N3479       N  0.98970030  0.78782121  0.95549825    -0.88800
H3480       H  0.95766075  0.73470025  0.91554306     0.18900
H3481       H  0.88889069  0.86148642  0.91268502     0.18900
N3482       N  0.85562422  0.80601874  0.87599667    -0.87800
H3483       H  0.98415119  0.76571680  0.97485515     0.36300
H3484       H  0.01172082  0.77784529  0.93642887     0.41300
H3485       H  0.86220579  0.80448870  0.84661365     0.41000
H3486       H  0.84126375  0.83200280  0.88309607     0.35900
C3487       C  0.62838898  0.81957100  0.92849854    -0.25900
C3488       C  0.60307463  0.80928547  0.95809685    -0.13900
C3489       C  0.58988146  0.77168160  0.95954721     0.36700
C3490       C  0.59511534  0.74765926  0.92752132    -0.25300
C3491       C  0.61543127  0.76018368  0.89508477    -0.14600
C3492       C  0.63481467  0.79540034  0.89693266     0.37800
N3493       N  0.66156976  0.80721672  0.86745609    -0.88800
H3494       H  0.63938000  0.84821805  0.92757876     0.18900
H3495       H  0.58489519  0.71860618  0.92850029     0.18900
N3496       N  0.57146138  0.75794364  0.99367161    -0.87800
H3497       H  0.66097876  0.79051052  0.84271352     0.36300
H3498       H  0.68867431  0.80437671  0.87768037     0.41300
H3499       H  0.54568260  0.74672380  0.98684294     0.41000
H3500       H  0.58828371  0.73500438  0.00337965     0.35900
C3501       C  0.89860489  0.84822943  0.62029785    -0.25900
C3502       C  0.91881808  0.85367640  0.58573819    -0.13900
C3503       C  0.92710237  0.82052697  0.56228525     0.36700
C3504       C  0.91246931  0.78463106  0.57220290    -0.25300
C3505       C  0.88981408  0.78074895  0.60540068    -0.14600
C3506       C  0.88319555  0.81267237  0.63005978     0.37800
N3507       N  0.85926663  0.80933020  0.66406760    -0.88800
H3508       H  0.89276075  0.87243454  0.63834997     0.18900
H3509       H  0.91842100  0.75980457  0.55361294     0.18900
N3510       N  0.95028957  0.82263865  0.52812448    -0.87800
H3511       H  0.83598430  0.82856070  0.66262271     0.36300
H3512       H  0.87443460  0.81746708  0.68733592     0.41300
H3513       H  0.93398139  0.81239548  0.50661825     0.41000
H3514       H  0.97334426  0.80320494  0.53010872     0.35900
C3515       C  0.59059477  0.79610660  0.63582752    -0.25900
C3516       C  0.58237139  0.77330735  0.60380296    -0.13900
C3517       C  0.54654729  0.78012291  0.58797140     0.36700
C3518       C  0.52634120  0.81465557  0.59664193    -0.25300
C3519       C  0.54117757  0.84162730  0.62089032    -0.14600
C3520       C  0.56705347  0.82838421  0.64623699     0.37800
N3521       N  0.56694542  0.84618639  0.68293113    -0.88800
H3522       H  0.61339801  0.78718539  0.65356546     0.18900
H3523       H  0.50272177  0.82325105  0.58018968     0.18900
N3524       N  0.52955120  0.75249371  0.56413717    -0.87800
H3525       H  0.54096005  0.84032710  0.69698158     0.36300
H3526       H  0.56639760  0.87606119  0.68013016     0.41300
H3527       H  0.50425690  0.74445225  0.57820696     0.41000
H3528       H  0.54648495  0.72733607  0.56049057     0.35900
loop_ 
_geom_bond_atom_site_label_1 
_geom_bond_atom_site_label_2 
_geom_bond_distance 
_geom_bond_site_symmetry_2 
_ccdc_geom_bond_type 
O1            C9   1.262       .  A
O1          Co21   2.007       .  S
O2           C10   1.268       .  A
O2          Co22   1.897       .  S
O3           C11   1.285       .  A
O3          Co23   2.083       .  S
O4           C12   1.306       .  A
O4          Co24   2.118   1_554  S
O5           C11   1.274       .  A
O5          Co22   2.005       .  S
O6           C12   1.268       .  A
O6          Co21   1.924       .  S
O7           C10   1.326       .  A
O7         Co465   2.186       .  S
O8            C9   1.273       .  A
O8         Co464   2.037   1_554  S
C9          C125   1.514       .  S
C10          C48   1.546       .  S
C11         C146   1.537       .  S
C12          C31   1.504       .  S
O13          C26   1.282       .  A
O13         Co21   2.032       .  S
O14          C27   1.262       .  A
O14         Co22   1.977       .  S
O15          C28   1.291       .  A
O15        Co464   2.077   1_554  S
O16          C29   1.255       .  A
O16        Co465   2.033       .  S
O17          C29   1.243       .  A
O17         Co22   1.990       .  S
O18          C28   1.306       .  A
O18         Co21   2.078       .  S
O19          C26   1.278       .  A
O19         Co24   2.080   1_554  S
O20          C27   1.282       .  A
O20         Co23   2.059       .  S
Co21         O25   1.979   1_554  S
Co22        O466   1.955       .  S
Co23        O449   2.037       .  S
Co23        O456   2.077       .  S
Co23        O466   2.147       .  S
Co24        O448   2.187       .  S
Co24        O457   2.033       .  S
Co24         O25   2.299       .  S
O25        Co463   1.955       .  S
O25        Co464   2.147       .  S
C26         C129   1.553       .  S
C27          C55   1.511       .  S
C28          C38   1.549       .  S
C29         C136   1.509       .  S
N30          C34   1.352       .  A
N30          C31   1.375       .  A
N30         C429   1.425       .  S
C31          C32   1.373       .  A
C32          C33   1.373       .  A
C32          H35   1.073       .  S
C33          C34   1.365       .  A
C33          H36   1.070       .  S
C34         C100   1.477       .  S
N37          C41   1.383       .  A
N37          C38   1.384       .  A
N37         C418   1.434       .  S
C38          C39   1.383       .  A
C39          C40   1.377       .  A
C39          H42   1.080       .  S
C40          C41   1.379       .  A
C40          H43   1.082       .  S
C41         C102   1.525       .  S
N44          C48   1.372       .  A
N44          C45   1.393       .  A
N44         C404   1.416       .  S
C45         C117   1.558       .  S
C45          C46   1.388       .  A
C46          C47   1.372       .  A
C46          H49   1.079       .  S
C47          C48   1.382       .  A
C47          H50   1.082       .  S
N51          C55   1.369       .  A
N51          C52   1.367       .  A
N51         C387   1.405       .  S
C52         C120   1.520       .  S
C52          C53   1.376       .  A
C53          C54   1.370       .  A
C53          H56   1.080       .  S
C54          C55   1.372       .  A
C54          H57   1.082       .  S
N58          C63   1.347   1_655  A
N58        C1826   1.342       .  A
N58          H90   1.025   1_655  S
N59          C66   1.347       .  A
N59         C508   1.345   1_554  A
N60          C65   1.348       .  A
N60        C1828   1.347   1_455  A
N60          H91   1.032       .  S
N61          C68   1.341       .  A
N61         C510   1.344       .  A
C62        N1822   1.342       .  A
C62          C70   1.375       .  A
C62          C78   1.402       .  A
C63          C79   1.398       .  A
C63          C71   1.383   1_455  A
C64        N1824   1.347       .  A
C64          C72   1.378       .  A
C64          C81   1.397       .  A
C65          C80   1.407       .  A
C65          C73   1.379       .  A
C66          C78   1.399       .  A
C66          C74   1.377       .  A
C67         N500   1.345       .  A
C67          C81   1.410       .  A
C67          C75   1.389       .  A
C68          C76   1.394       .  A
C68          C79   1.409       .  A
C69         N502   1.344       .  A
C69          C77   1.376       .  A
C69          C80   1.389       .  A
C70        C1835   1.371       .  A
C70          H82   1.066       .  S
C71        C1834   1.371       .  A
C71          H83   1.082   1_655  S
C72        C1837   1.352       .  A
C72          H84   1.079       .  S
C73        C1836   1.352       .  A
C73          H85   1.068       .  S
C74         C516   1.362   1_554  A
C74          H86   1.074       .  S
C75         C515   1.362       .  A
C75          H87   1.076       .  S
C76         C518   1.368       .  A
C76          H88   1.078       .  S
C77         C517   1.368       .  A
C77          H89   1.081       .  S
C78         C415   1.518       .  S
C79         C432   1.476       .  S
C80         C401   1.466       .  S
C81         C390   1.483       .  S
O92         C100   1.240       .  A
O92        Co112   1.946       .  S
O93         C101   1.260       .  A
O93        Co113   2.027       .  S
O94         C102   1.313       .  A
O94        Co114   2.175       .  S
O95         C103   1.325       .  A
O95       Co1879   2.223       .  S
O96         C102   1.259       .  A
O96        Co113   1.904       .  S
O97         C103   1.239       .  A
O97        Co112   1.842       .  S
O98         C101   1.278       .  A
O98        Co115   2.073       .  S
O99         C100   1.259       .  A
O99       Co1878   2.006   1_455  S
C101        C208   1.537       .  S
C103        C184   1.539       .  S
O104        C117   1.287       .  A
O104       Co112   2.038       .  S
O105        C118   1.301       .  A
O105       Co113   2.130       .  S
O106        C119   1.282       .  A
O106      Co1878   2.058   1_455  S
O107        C120   1.302       .  A
O107       Co115   2.106       .  S
O108        C120   1.285       .  A
O108       Co113   1.972       .  S
O109        C119   1.283       .  A
O109       Co112   2.012       .  S
O110        C117   1.282       .  A
O110      Co1879   2.089       .  S
O111        C118   1.268       .  A
O111       Co114   2.003       .  S
Co112      O1880   1.924       .  S
Co113       O116   1.970       .  S
Co114      O1863   2.006       .  S
Co114      O1870   2.058       .  S
Co114       O116   2.219       .  S
Co115      O1859   2.223       .  S
Co115      O1874   2.089       .  S
Co115       O116   2.233       .  S
O116      Co1876   1.924       .  S
C118        C194   1.553       .  S
C119        C201   1.507       .  S
N121        C125   1.369       .  A
N121        C122   1.352       .  A
N121        C376   1.419       .  S
C122        C253   1.492       .  S
C122        C123   1.366       .  A
C123        C124   1.387       .  A
C123        H126   1.074       .  S
C124        C125   1.379       .  A
C124        H127   1.078       .  S
N128        C132   1.387       .  A
N128        C129   1.391       .  A
N128        C359   1.444       .  S
C129        C130   1.376       .  A
C130        C131   1.381       .  A
C130        H133   1.080       .  S
C131        C132   1.378       .  A
C131        H134   1.073       .  S
C132        C255   1.542       .  S
N135        C139   1.367       .  A
N135        C136   1.365       .  A
N135        C348   1.421       .  S
C136        C137   1.360       .  A
C137        C138   1.389       .  A
C137        H140   1.079       .  S
C138        C139   1.374       .  A
C138        H141   1.080       .  S
C139        C273   1.521       .  S
N142        C146   1.375       .  A
N142        C143   1.373       .  A
N142        C334   1.419       .  S
C143        C270   1.530       .  S
C143        C144   1.380       .  A
C144        C145   1.384       .  A
C144        H147   1.082       .  S
C145        C146   1.388       .  A
C145        H148   1.080       .  S
N149        C153   1.360       .  A
N149       C1036   1.353       .  A
N149        H181   1.038       .  S
N150        C157   1.345       .  A
N150        C599   1.346       .  A
N151        C155   1.336       .  A
N151       C1038   1.340       .  A
N151        H182   1.043       .  S
N152        C159   1.344       .  A
N152        C601   1.353       .  A
C153        C161   1.379       .  A
C153        C169   1.408       .  A
C154       N1031   1.353       .  A
C154        C170   1.403       .  A
C154        C162   1.379       .  A
C155        C163   1.380       .  A
C155        C172   1.384       .  A
C156       N1033   1.340       .  A
C156        C171   1.392       .  A
C156        C164   1.386       .  A
C157        C169   1.402       .  A
C157        C165   1.386       .  A
C158        N591   1.346       .  A
C158        C172   1.401       .  A
C158        C166   1.379       .  A
C159        C167   1.383       .  A
C159        C170   1.399       .  A
C160        N593   1.353       .  A
C160        C168   1.387       .  A
C160        C171   1.414       .  A
C161       C1044   1.346       .  A
C161        H173   1.081       .  S
C162       C1043   1.346       .  A
C162        H174   1.081       .  S
C163       C1046   1.383       .  A
C163        H175   1.081       .  S
C164       C1045   1.383   1_545  A
C164        H176   1.082       .  S
C165        C607   1.342       .  A
C165        H177   1.081       .  S
C166        C606   1.342   1_554  A
C166        H178   1.077       .  S
C167        C609   1.375       .  A
C167        H179   1.082       .  S
C168        C608   1.375       .  A
C168        H180   1.077       .  S
C169        C331   1.483       .  S
C170        C345   1.492       .  S
C171        C362   1.514       .  S
C172        C373   1.473       .  S
N183        C187   1.379       .  A
N183        C184   1.370       .  A
N183        C320   1.412       .  S
C184        C185   1.385       .  A
C185        C186   1.374       .  A
C185        H188   1.083       .  S
C186        C187   1.383       .  A
C186        H189   1.080       .  S
C187        C272   1.528       .  S
N190        C194   1.380       .  A
N190        C191   1.375       .  A
N190        C306   1.414       .  S
C191        C254   1.542       .  S
C191        C192   1.381       .  A
C192        C193   1.391       .  A
C192        H195   1.081       .  S
C193        C194   1.387       .  A
C193        H196   1.082       .  S
N197        C201   1.363       .  A
N197        C198   1.374       .  A
N197        C292   1.418       .  S
C198        C271   1.527       .  S
C198        C199   1.386       .  A
C199        C200   1.370       .  A
C199        H202   1.076       .  S
C200        C201   1.377       .  A
C200        H203   1.082       .  S
N204        C208   1.387       .  A
N204        C205   1.362       .  A
N204        C275   1.439       .  S
C205        C256   1.499       .  S
C205        C206   1.356       .  A
C206        C207   1.385       .  A
C206        H209   1.076       .  S
C207        C208   1.384       .  A
C207        H210   1.082       .  S
N211        C215   1.346       .  A
N211       C1980   1.351       .  A
N211        H243   1.039       .  S
N212        C219   1.350       .  A
N212       C1102   1.352   1_545  A
N213        C217   1.347       .  A
N213       C1982   1.355       .  A
N213        H244   1.037       .  S
N214        C221   1.338       .  A
N214       C1104   1.340   1_545  A
C215        C223   1.387       .  A
C215        C231   1.407   1_655  A
C216       N1975   1.351       .  A
C216        C232   1.399       .  A
C216        C224   1.387       .  A
C217        C225   1.375       .  A
C217        C234   1.394   1_655  A
C218       N1977   1.355       .  A
C218        C233   1.423       .  A
C218        C226   1.386       .  A
C219        C231   1.422       .  A
C219        C227   1.387       .  A
C220       N1094   1.352       .  A
C220        C234   1.399       .  A
C220        C228   1.376       .  A
C221        C229   1.387       .  A
C221        C232   1.407       .  A
C222       N1096   1.340       .  A
C222        C230   1.377       .  A
C222        C233   1.397       .  A
C223       C1988   1.370       .  A
C223        H235   1.082       .  S
C224       C1987   1.370       .  A
C224        H236   1.083       .  S
C225       C1990   1.346       .  A
C225        H237   1.083       .  S
C226       C1989   1.346       .  A
C226        H238   1.065       .  S
C227       C1110   1.337       .  A
C227        H239   1.068       .  S
C228       C1109   1.337       .  A
C228        H240   1.081       .  S
C229       C1112   1.381       .  A
C229        H241   1.076       .  S
C230       C1111   1.381       .  A
C230        H242   1.082       .  S
C231        C289   1.476       .  S
C232        C303   1.509       .  S
C233        C278   1.496       .  S
C234        C317   1.471       .  S
O245        C253   1.257       .  A
O245       Co265   1.893       .  S
O246        C254   1.260       .  A
O246       Co266   2.008       .  S
O247        C255   1.309       .  A
O247       Co267   2.140   1_545  S
O248        C256   1.266       .  A
O248       Co268   2.030       .  S
O249        C255   1.287       .  A
O249       Co266   1.941       .  S
O250        C256   1.246       .  A
O250       Co265   1.978       .  S
O251        C254   1.268       .  A
O251      Co1150   2.081   1_545  S
O252        C253   1.302       .  A
O252      Co1149   2.125       .  S
O257        C270   1.294       .  A
O257       Co265   2.064       .  S
O258        C271   1.252       .  A
O258       Co266   1.977       .  S
O259        C272   1.288       .  A
O259      Co1149   2.117       .  S
O260        C273   1.268       .  A
O260      Co1150   1.982   1_545  S
O261        C273   1.304       .  A
O261       Co266   2.109       .  S
O262        C272   1.271       .  A
O262       Co265   1.981       .  S
O263        C270   1.280       .  A
O263       Co268   2.057       .  S
O264        C271   1.275       .  A
O264       Co267   2.074   1_545  S
Co265       O269   1.960       .  S
Co266      O1151   1.972   1_545  S
Co267      O1134   2.125       .  S
Co267      O1141   2.117       .  S
Co267      O1151   2.277       .  S
Co268      O1133   2.081       .  S
Co268      O1142   1.982       .  S
Co268       O269   2.147       .  S
O269      Co1148   1.972       .  S
O269      Co1149   2.277       .  S
C274        C275   1.402       .  A
C274        C279   1.411       .  A
C274        H281   1.071       .  S
C275        C276   1.420       .  A
C276        C277   1.399       .  A
C276        N283   1.432       .  S
C277        C278   1.396       .  A
C277        H282   1.070       .  S
C278        C279   1.400       .  A
C279        N280   1.421       .  S
N280        H284   1.044       .  S
N280        H285   1.044       .  S
N283        H286   1.045       .  S
N283        H287   1.044       .  S
C288        C289   1.406       .  A
C288        C293   1.395       .  A
C288        H295   1.078   1_455  S
C289        C290   1.392       .  A
C290        C291   1.391       .  A
C290        N297   1.427       .  S
C291        C292   1.415       .  A
C291        H296   1.079       .  S
C292        C293   1.404       .  A
C293        N294   1.432       .  S
N294        H298   1.045       .  S
N294        H299   1.043       .  S
N297        H300   1.045       .  S
N297        H301   1.044       .  S
C302        C303   1.403       .  A
C302        C307   1.404       .  A
C302        H309   1.074       .  S
C303        C304   1.420       .  A
C304        C305   1.392       .  A
C304        N311   1.422       .  S
C305        C306   1.384       .  A
C305        H310   1.084       .  S
C306        C307   1.392       .  A
C307        N308   1.439       .  S
N308        H312   1.040       .  S
N308        H313   1.044       .  S
N311        H314   1.036       .  S
N311        H315   1.038       .  S
C316        C317   1.382       .  A
C316        C321   1.375       .  A
C316        H323   1.071       .  S
C317        C318   1.416       .  A
C318        C319   1.397       .  A
C318        N325   1.436       .  S
C319        C320   1.397       .  A
C319        H324   1.079       .  S
C320        C321   1.394       .  A
C321        N322   1.428       .  S
N322        H326   1.037       .  S
N322        H327   1.042       .  S
N325        H328   1.044       .  S
N325        H329   1.045       .  S
C330        C331   1.410       .  A
C330        C335   1.390       .  A
C330        H337   1.082       .  S
C331        C332   1.400       .  A
C332        C333   1.383       .  A
C332        N339   1.427       .  S
C333        C334   1.400       .  A
C333        H338   1.081       .  S
C334        C335   1.398       .  A
C335        N336   1.430       .  S
N336        H340   1.046       .  S
N336        H341   1.046       .  S
N339        H342   1.042       .  S
N339        H343   1.045       .  S
C344        C345   1.403       .  A
C344        C349   1.396       .  A
C344        H351   1.073       .  S
C345        C346   1.431       .  A
C346        C347   1.394       .  A
C346        N353   1.441       .  S
C347        C348   1.395       .  A
C347        H352   1.084       .  S
C348        C349   1.383       .  A
C349        N350   1.419       .  S
N350        H354   1.046       .  S
N350        H355   1.044       .  S
N353        H356   1.033       .  S
N353        H357   1.044       .  S
C358        C359   1.397       .  A
C358        C363   1.403       .  A
C358        H365   1.066       .  S
C359        C360   1.399       .  A
C360        C361   1.396       .  A
C360        N367   1.434       .  S
C361        C362   1.410       .  A
C361        H366   1.070       .  S
C362        C363   1.419       .  A
C363        N364   1.429       .  S
N364        H368   1.043       .  S
N364        H369   1.045       .  S
N367        H370   1.044       .  S
N367        H371   1.044       .  S
C372        C373   1.405       .  A
C372        C377   1.397       .  A
C372        H379   1.085       .  S
C373        C374   1.398       .  A
C374        C375   1.400       .  A
C374        N381   1.422       .  S
C375        C376   1.393       .  A
C375        H380   1.082       .  S
C376        C377   1.412       .  A
C377        N378   1.432       .  S
N378        H382   1.046       .  S
N378        H383   1.046       .  S
N381        H384   1.043       .  S
N381        H385   1.043       .  S
C386        C387   1.380       .  A
C386        C391   1.388       .  A
C386        H393   1.084       .  S
C387        C388   1.394       .  A
C388        C389   1.381       .  A
C388        N395   1.428       .  S
C389        C390   1.389       .  A
C389        H394   1.073       .  S
C390        C391   1.425       .  A
C391        N392   1.429       .  S
N392        H396   1.045       .  S
N392        H397   1.045       .  S
N395        H398   1.045       .  S
N395        H399   1.040       .  S
C400        C401   1.391       .  A
C400        C405   1.387       .  A
C400        H407   1.081       .  S
C401        C402   1.402       .  A
C402        C403   1.394       .  A
C402        N409   1.425       .  S
C403        C404   1.393       .  A
C403        H408   1.083       .  S
C404        C405   1.425       .  A
C405        N406   1.436       .  S
N406        H410   1.042       .  S
N406        H411   1.042       .  S
N409        H412   1.043       .  S
N409        H413   1.045       .  S
C414        C415   1.392       .  A
C414        C419   1.404       .  A
C414        H421   1.056       .  S
C415        C416   1.421       .  A
C416        C417   1.405       .  A
C416        N423   1.419       .  S
C417        C418   1.387       .  A
C417        H422   1.084       .  S
C418        C419   1.405       .  A
C419        N420   1.433       .  S
N420        H424   1.043       .  S
N420        H425   1.043       .  S
N423        H426   1.042       .  S
N423        H427   1.043       .  S
C428        C429   1.418       .  A
C428        C433   1.403       .  A
C428        H435   1.082       .  S
C429        C430   1.422       .  A
C430        C431   1.395       .  A
C430        N437   1.436       .  S
C431        C432   1.395       .  A
C431        H436   1.074       .  S
C432        C433   1.378       .  A
C433        N434   1.423       .  S
N434        H438   1.046       .  S
N434        H439   1.041       .  S
N437        H440   1.046       .  S
N437        H441   1.043       .  S
O442        C450   1.262       .  A
O442       Co462   2.007       .  S
O443        C451   1.268       .  A
O443       Co463   1.897       .  S
O444        C452   1.285       .  A
O444       Co464   2.084       .  S
O445        C453   1.306       .  A
O445       Co465   2.119       .  S
O446        C452   1.274       .  A
O446       Co463   2.005       .  S
O447        C453   1.268       .  A
O447       Co462   1.924       .  S
O448        C451   1.326       .  A
O449        C450   1.273       .  A
C450        C566   1.513       .  S
C451        C489   1.546       .  S
C452        C587   1.537       .  S
C453        C472   1.504       .  S
O454        C467   1.283       .  A
O454       Co462   2.032       .  S
O455        C468   1.262       .  A
O455       Co463   1.977       .  S
O456        C469   1.291       .  A
O457        C470   1.255       .  A
O458        C470   1.243       .  A
O458       Co463   1.990       .  S
O459        C469   1.306       .  A
O459       Co462   2.078       .  S
O460        C467   1.278       .  A
O460       Co465   2.080       .  S
O461        C468   1.282       .  A
O461       Co464   2.059       .  S
Co462       O466   1.979       .  S
Co465       O466   2.299       .  S
C467        C570   1.553       .  S
C468        C496   1.510       .  S
C469        C479   1.549       .  S
C470        C577   1.509       .  S
N471        C475   1.352       .  A
N471        C472   1.375       .  A
N471        C870   1.425       .  S
C472        C473   1.373       .  A
C473        C474   1.373       .  A
C473        H476   1.072       .  S
C474        C475   1.365       .  A
C474        H477   1.070       .  S
C475        C541   1.477       .  S
N478        C482   1.383       .  A
N478        C479   1.384       .  A
N478        C859   1.434       .  S
C479        C480   1.383       .  A
C480        C481   1.377       .  A
C480        H483   1.080       .  S
C481        C482   1.379       .  A
C481        H484   1.082       .  S
C482        C543   1.525       .  S
N485        C489   1.372       .  A
N485        C486   1.392       .  A
N485        C845   1.416       .  S
C486        C558   1.558       .  S
C486        C487   1.388       .  A
C487        C488   1.372       .  A
C487        H490   1.079       .  S
C488        C489   1.382       .  A
C488        H491   1.082       .  S
N492        C496   1.369       .  A
N492        C493   1.367       .  A
N492        C828   1.405       .  S
C493        C561   1.520       .  S
C493        C494   1.376       .  A
C494        C495   1.370       .  A
C494        H497   1.080       .  S
C495        C496   1.372       .  A
C495        H498   1.082       .  S
N499        C504   1.347   1_655  A
N499       C2267   1.343       .  A
N499        H531   1.025   1_655  S
N500        C507   1.346       .  A
N501        C506   1.348       .  A
N501       C2269   1.347   1_455  A
N501        H532   1.032   1_556  S
N502        C509   1.341       .  A
C503       N2263   1.343       .  A
C503        C511   1.375       .  A
C503        C519   1.402       .  A
C504        C520   1.398       .  A
C504        C512   1.383   1_455  A
C505       N2265   1.347       .  A
C505        C513   1.378       .  A
C505        C522   1.398       .  A
C506        C521   1.407       .  A
C506        C514   1.379       .  A
C507        C519   1.398       .  A
C507        C515   1.377       .  A
C508        C522   1.410       .  A
C508        C516   1.389       .  A
C509        C517   1.394       .  A
C509        C520   1.409       .  A
C510        C518   1.376       .  A
C510        C521   1.389   1_554  A
C511       C2276   1.371       .  A
C511        H523   1.066       .  S
C512       C2275   1.371       .  A
C512        H524   1.082   1_655  S
C513       C2278   1.352       .  A
C513        H525   1.079       .  S
C514       C2277   1.352       .  A
C514        H526   1.068       .  S
C515        H527   1.074       .  S
C516        H528   1.076       .  S
C517        H529   1.078       .  S
C518        H530   1.081       .  S
C519        C856   1.518       .  S
C520        C873   1.476       .  S
C521        C842   1.466       .  S
C522        C831   1.484       .  S
O533        C541   1.240       .  A
O533       Co553   1.945       .  S
O534        C542   1.260       .  A
O534       Co554   2.027       .  S
O535        C543   1.313       .  A
O535       Co555   2.175       .  S
O536        C544   1.325       .  A
O536      Co2320   2.223       .  S
O537        C543   1.259       .  A
O537       Co554   1.904       .  S
O538        C544   1.239       .  A
O538       Co553   1.842       .  S
O539        C542   1.278       .  A
O539       Co556   2.073       .  S
O540        C541   1.259       .  A
O540      Co2319   2.007   1_455  S
C542        C649   1.536       .  S
C544        C625   1.540       .  S
O545        C558   1.287       .  A
O545       Co553   2.037       .  S
O546        C559   1.301       .  A
O546       Co554   2.130       .  S
O547        C560   1.282       .  A
O547      Co2319   2.057   1_455  S
O548        C561   1.302       .  A
O548       Co556   2.107       .  S
O549        C561   1.285       .  A
O549       Co554   1.972       .  S
O550        C560   1.283       .  A
O550       Co553   2.012       .  S
O551        C558   1.282       .  A
O551      Co2320   2.089       .  S
O552        C559   1.268       .  A
O552       Co555   2.003       .  S
Co553      O2321   1.924       .  S
Co554       O557   1.970       .  S
Co555      O2304   2.007       .  S
Co555      O2311   2.057       .  S
Co555       O557   2.219       .  S
Co556      O2300   2.223       .  S
Co556      O2315   2.089       .  S
Co556       O557   2.233       .  S
O557      Co2317   1.924       .  S
C559        C635   1.553       .  S
C560        C642   1.506       .  S
N562        C566   1.369       .  A
N562        C563   1.352       .  A
N562        C817   1.419       .  S
C563        C694   1.492       .  S
C563        C564   1.366       .  A
C564        C565   1.387       .  A
C564        H567   1.073       .  S
C565        C566   1.379       .  A
C565        H568   1.078       .  S
N569        C573   1.387       .  A
N569        C570   1.391       .  A
N569        C800   1.444       .  S
C570        C571   1.376       .  A
C571        C572   1.380       .  A
C571        H574   1.080       .  S
C572        C573   1.378       .  A
C572        H575   1.073       .  S
C573        C696   1.541       .  S
N576        C580   1.367       .  A
N576        C577   1.365       .  A
N576        C789   1.420       .  S
C577        C578   1.360       .  A
C578        C579   1.389       .  A
C578        H581   1.079       .  S
C579        C580   1.373       .  A
C579        H582   1.080       .  S
C580        C714   1.521       .  S
N583        C587   1.375       .  A
N583        C584   1.374       .  A
N583        C775   1.419       .  S
C584        C711   1.531       .  S
C584        C585   1.380       .  A
C585        C586   1.385       .  A
C585        H588   1.082       .  S
C586        C587   1.388       .  A
C586        H589   1.080       .  S
N590       C1477   1.353       .  A
N590        C594   1.359       .  A
N590        H622   1.038       .  S
N591        C598   1.345   1_554  A
N592       C1479   1.340       .  A
N592        C596   1.336       .  A
N592        H623   1.043       .  S
N593        C600   1.344   1_554  A
C594        C602   1.379       .  A
C594        C610   1.408       .  A
C595       N1472   1.353       .  A
C595        C611   1.403       .  A
C595        C603   1.379       .  A
C596        C604   1.380       .  A
C596        C613   1.384       .  A
C597       N1474   1.340       .  A
C597        C612   1.392       .  A
C597        C605   1.386       .  A
C598        C610   1.402       .  A
C598        C606   1.386       .  A
C599        C613   1.401       .  A
C599        C607   1.378       .  A
C600        C608   1.383   1_556  A
C600        C611   1.398       .  A
C601        C609   1.387       .  A
C601        C612   1.414       .  A
C602       C1485   1.346       .  A
C602        H614   1.081       .  S
C603       C1484   1.346       .  A
C603        H615   1.081       .  S
C604       C1487   1.383       .  A
C604        H616   1.081       .  S
C605       C1486   1.383   1_545  A
C605        H617   1.082       .  S
C606        H618   1.081       .  S
C607        H619   1.077       .  S
C608        H620   1.082   1_554  S
C609        H621   1.077       .  S
C610        C772   1.482       .  S
C611        C786   1.492       .  S
C612        C803   1.514       .  S
C613        C814   1.473       .  S
N624        C628   1.379       .  A
N624        C625   1.370       .  A
N624        C761   1.412       .  S
C625        C626   1.385       .  A
C626        C627   1.374       .  A
C626        H629   1.083       .  S
C627        C628   1.383       .  A
C627        H630   1.080       .  S
C628        C713   1.528       .  S
N631        C635   1.380       .  A
N631        C632   1.375       .  A
N631        C747   1.414       .  S
C632        C695   1.542       .  S
C632        C633   1.381       .  A
C633        C634   1.391       .  A
C633        H636   1.081       .  S
C634        C635   1.387       .  A
C634        H637   1.082       .  S
N638        C642   1.363       .  A
N638        C639   1.374       .  A
N638        C733   1.418       .  S
C639        C712   1.527       .  S
C639        C640   1.386       .  A
C640        C641   1.370       .  A
C640        H643   1.076       .  S
C641        C642   1.377       .  A
C641        H644   1.082       .  S
N645        C649   1.387       .  A
N645        C646   1.362       .  A
N645        C716   1.439       .  S
C646        C697   1.499       .  S
C646        C647   1.355       .  A
C647        C648   1.385       .  A
C647        H650   1.076       .  S
C648        C649   1.384       .  A
C648        H651   1.082       .  S
N652       C2421   1.351       .  A
N652        C656   1.346       .  A
N652        H684   1.039       .  S
N653        C660   1.350       .  A
N653       C1543   1.352   1_545  A
N654       C2423   1.355       .  A
N654        C658   1.347       .  A
N654        H685   1.037       .  S
N655        C662   1.338       .  A
N655       C1545   1.340   1_545  A
C656        C664   1.387       .  A
C656        C672   1.407   1_655  A
C657       N2416   1.351       .  A
C657        C673   1.399       .  A
C657        C665   1.387       .  A
C658        C666   1.375       .  A
C658        C675   1.394   1_655  A
C659       N2418   1.355       .  A
C659        C674   1.422       .  A
C659        C667   1.386       .  A
C660        C672   1.422       .  A
C660        C668   1.387       .  A
C661       N1535   1.352       .  A
C661        C675   1.398       .  A
C661        C669   1.376       .  A
C662        C670   1.387       .  A
C662        C673   1.407       .  A
C663       N1537   1.340       .  A
C663        C671   1.377       .  A
C663        C674   1.397       .  A
C664       C2429   1.370       .  A
C664        H676   1.082       .  S
C665       C2428   1.370       .  A
C665        H677   1.083       .  S
C666       C2431   1.346       .  A
C666        H678   1.083       .  S
C667       C2430   1.346       .  A
C667        H679   1.065       .  S
C668       C1551   1.337       .  A
C668        H680   1.068       .  S
C669       C1550   1.337       .  A
C669        H681   1.081       .  S
C670       C1553   1.380       .  A
C670        H682   1.075       .  S
C671       C1552   1.380       .  A
C671        H683   1.082       .  S
C672        C730   1.476       .  S
C673        C744   1.509       .  S
C674        C719   1.496       .  S
C675        C758   1.471       .  S
O686        C694   1.257       .  A
O686       Co706   1.893       .  S
O687        C695   1.260       .  A
O687       Co707   2.008       .  S
O688        C696   1.309       .  A
O688       Co708   2.140   1_545  S
O689        C697   1.266       .  A
O689       Co709   2.030       .  S
O690        C696   1.287       .  A
O690       Co707   1.941       .  S
O691        C697   1.245       .  A
O691       Co706   1.978       .  S
O692        C695   1.268       .  A
O692      Co1591   2.081   1_545  S
O693        C694   1.302       .  A
O693      Co1590   2.125       .  S
O698        C711   1.294       .  A
O698       Co706   2.065       .  S
O699        C712   1.252       .  A
O699       Co707   1.977       .  S
O700        C713   1.288       .  A
O700      Co1590   2.117       .  S
O701        C714   1.268       .  A
O701      Co1591   1.982   1_545  S
O702        C714   1.304       .  A
O702       Co707   2.109       .  S
O703        C713   1.271       .  A
O703       Co706   1.981       .  S
O704        C711   1.280       .  A
O704       Co709   2.058       .  S
O705        C712   1.275       .  A
O705       Co708   2.074   1_545  S
Co706       O710   1.960       .  S
Co707      O1592   1.973   1_545  S
Co708      O1575   2.125       .  S
Co708      O1582   2.117       .  S
Co708      O1592   2.277       .  S
Co709      O1574   2.081       .  S
Co709      O1583   1.982       .  S
Co709       O710   2.147       .  S
O710      Co1589   1.973       .  S
O710      Co1590   2.277       .  S
C715        C716   1.402       .  A
C715        C720   1.411       .  A
C715        H722   1.071       .  S
C716        C717   1.420       .  A
C717        C718   1.399       .  A
C717        N724   1.432       .  S
C718        C719   1.396       .  A
C718        H723   1.070       .  S
C719        C720   1.400       .  A
C720        N721   1.421       .  S
N721        H725   1.044       .  S
N721        H726   1.044       .  S
N724        H727   1.045       .  S
N724        H728   1.044       .  S
C729        C730   1.406       .  A
C729        C734   1.395       .  A
C729        H736   1.078   1_455  S
C730        C731   1.392       .  A
C731        C732   1.391       .  A
C731        N738   1.427       .  S
C732        C733   1.415       .  A
C732        H737   1.079       .  S
C733        C734   1.404       .  A
C734        N735   1.432       .  S
N735        H739   1.045       .  S
N735        H740   1.043       .  S
N738        H741   1.045       .  S
N738        H742   1.044       .  S
C743        C744   1.404       .  A
C743        C748   1.404       .  A
C743        H750   1.074       .  S
C744        C745   1.420       .  A
C745        C746   1.392       .  A
C745        N752   1.422       .  S
C746        C747   1.384       .  A
C746        H751   1.084       .  S
C747        C748   1.392       .  A
C748        N749   1.439       .  S
N749        H753   1.040       .  S
N749        H754   1.044       .  S
N752        H755   1.036       .  S
N752        H756   1.038       .  S
C757        C758   1.382       .  A
C757        C762   1.375       .  A
C757        H764   1.071       .  S
C758        C759   1.417       .  A
C759        C760   1.397       .  A
C759        N766   1.436       .  S
C760        C761   1.396       .  A
C760        H765   1.079       .  S
C761        C762   1.394       .  A
C762        N763   1.428       .  S
N763        H767   1.038       .  S
N763        H768   1.042       .  S
N766        H769   1.044       .  S
N766        H770   1.045       .  S
C771        C772   1.410       .  A
C771        C776   1.390       .  A
C771        H778   1.082       .  S
C772        C773   1.400       .  A
C773        C774   1.382       .  A
C773        N780   1.427       .  S
C774        C775   1.400       .  A
C774        H779   1.081       .  S
C775        C776   1.397       .  A
C776        N777   1.430       .  S
N777        H781   1.046       .  S
N777        H782   1.046       .  S
N780        H783   1.042       .  S
N780        H784   1.045       .  S
C785        C786   1.403       .  A
C785        C790   1.396       .  A
C785        H792   1.073       .  S
C786        C787   1.431       .  A
C787        C788   1.394       .  A
C787        N794   1.441       .  S
C788        C789   1.395       .  A
C788        H793   1.084       .  S
C789        C790   1.383       .  A
C790        N791   1.419       .  S
N791        H795   1.046       .  S
N791        H796   1.044       .  S
N794        H797   1.033   1_556  S
N794        H798   1.044       .  S
C799        C800   1.398       .  A
C799        C804   1.404       .  A
C799        H806   1.067       .  S
C800        C801   1.399       .  A
C801        C802   1.396       .  A
C801        N808   1.434       .  S
C802        C803   1.410       .  A
C802        H807   1.070       .  S
C803        C804   1.419       .  A
C804        N805   1.429       .  S
N805        H809   1.043       .  S
N805        H810   1.045       .  S
N808        H811   1.044       .  S
N808        H812   1.044       .  S
C813        C814   1.405       .  A
C813        C818   1.397       .  A
C813        H820   1.085       .  S
C814        C815   1.399       .  A
C815        C816   1.400       .  A
C815        N822   1.422       .  S
C816        C817   1.393       .  A
C816        H821   1.082       .  S
C817        C818   1.411       .  A
C818        N819   1.432       .  S
N819        H823   1.046       .  S
N819        H824   1.046       .  S
N822        H825   1.042       .  S
N822        H826   1.044       .  S
C827        C828   1.380       .  A
C827        C832   1.387       .  A
C827        H834   1.084       .  S
C828        C829   1.394       .  A
C829        C830   1.382       .  A
C829        N836   1.428       .  S
C830        C831   1.389       .  A
C830        H835   1.073       .  S
C831        C832   1.425       .  A
C832        N833   1.429       .  S
N833        H837   1.045       .  S
N833        H838   1.045       .  S
N836        H839   1.045       .  S
N836        H840   1.040       .  S
C841        C842   1.391       .  A
C841        C846   1.388       .  A
C841        H848   1.081       .  S
C842        C843   1.402       .  A
C843        C844   1.394       .  A
C843        N850   1.425       .  S
C844        C845   1.393       .  A
C844        H849   1.083       .  S
C845        C846   1.426       .  A
C846        N847   1.436       .  S
N847        H851   1.042       .  S
N847        H852   1.042       .  S
N850        H853   1.043       .  S
N850        H854   1.045   1_556  S
C855        C856   1.391       .  A
C855        C860   1.404       .  A
C855        H862   1.055       .  S
C856        C857   1.421       .  A
C857        C858   1.405       .  A
C857        N864   1.419       .  S
C858        C859   1.387       .  A
C858        H863   1.084       .  S
C859        C860   1.405       .  A
C860        N861   1.433       .  S
N861        H865   1.043       .  S
N861        H866   1.043       .  S
N864        H867   1.042       .  S
N864        H868   1.043       .  S
C869        C870   1.418       .  A
C869        C874   1.404       .  A
C869        H876   1.082       .  S
C870        C871   1.422       .  A
C871        C872   1.394       .  A
C871        N878   1.436       .  S
C872        C873   1.395       .  A
C872        H877   1.074       .  S
C873        C874   1.378       .  A
C874        N875   1.423       .  S
N875        H879   1.046       .  S
N875        H880   1.041       .  S
N878        H881   1.046       .  S
N878        H882   1.043       .  S
O883        C891   1.262       .  A
O883       Co903   2.007       .  S
O884        C892   1.268       .  A
O884       Co904   1.897       .  S
O885        C893   1.285       .  A
O885       Co905   2.083       .  S
O886        C894   1.306       .  A
O886       Co906   2.118   1_554  S
O887        C893   1.274       .  A
O887       Co904   2.005       .  S
O888        C894   1.268       .  A
O888       Co903   1.924       .  S
O889        C892   1.326       .  A
O889      Co1347   2.186       .  S
O890        C891   1.273       .  A
O890      Co1346   2.037   1_554  S
C891       C1007   1.514       .  S
C892        C930   1.546       .  S
C893       C1028   1.537       .  S
C894        C913   1.504       .  S
O895        C908   1.282       .  A
O895       Co903   2.032       .  S
O896        C909   1.262       .  A
O896       Co904   1.977       .  S
O897        C910   1.291       .  A
O897      Co1346   2.077   1_554  S
O898        C911   1.255       .  A
O898      Co1347   2.033       .  S
O899        C911   1.243       .  A
O899       Co904   1.990       .  S
O900        C910   1.306       .  A
O900       Co903   2.078       .  S
O901        C908   1.278       .  A
O901       Co906   2.080   1_554  S
O902        C909   1.282       .  A
O902       Co905   2.059       .  S
Co903       O907   1.979   1_554  S
Co904      O1348   1.955       .  S
Co905      O1331   2.037       .  S
Co905      O1338   2.077       .  S
Co905      O1348   2.147       .  S
Co906      O1330   2.187       .  S
Co906      O1339   2.033       .  S
Co906       O907   2.299       .  S
O907      Co1345   1.955       .  S
O907      Co1346   2.147       .  S
C908       C1011   1.553       .  S
C909        C937   1.511       .  S
C910        C920   1.549       .  S
C911       C1018   1.509       .  S
N912        C916   1.352       .  A
N912        C913   1.375       .  A
N912       C1311   1.425       .  S
C913        C914   1.373       .  A
C914        C915   1.373       .  A
C914        H917   1.073       .  S
C915        C916   1.365       .  A
C915        H918   1.070       .  S
C916        C982   1.477       .  S
N919        C923   1.383       .  A
N919        C920   1.384       .  A
N919       C1300   1.434       .  S
C920        C921   1.383       .  A
C921        C922   1.377       .  A
C921        H924   1.080       .  S
C922        C923   1.379       .  A
C922        H925   1.082       .  S
C923        C984   1.525       .  S
N926        C930   1.372       .  A
N926        C927   1.393       .  A
N926       C1286   1.416       .  S
C927        C999   1.558       .  S
C927        C928   1.388       .  A
C928        C929   1.372       .  A
C928        H931   1.079       .  S
C929        C930   1.382       .  A
C929        H932   1.082       .  S
N933        C937   1.369       .  A
N933        C934   1.367       .  A
N933       C1269   1.405       .  S
C934       C1002   1.520       .  S
C934        C935   1.376       .  A
C935        C936   1.370       .  A
C935        H938   1.080       .  S
C936        C937   1.372       .  A
C936        H939   1.082       .  S
N940        C945   1.347   1_655  A
N940       C2708   1.342       .  A
N940        H972   1.025   1_655  S
N941        C948   1.347       .  A
N941       C1390   1.345   1_554  A
N942        C947   1.348       .  A
N942       C2710   1.347   1_455  A
N942        H973   1.032       .  S
N943        C950   1.341       .  A
N943       C1392   1.344       .  A
C944       N2704   1.342       .  A
C944        C952   1.375       .  A
C944        C960   1.402       .  A
C945        C961   1.398       .  A
C945        C953   1.383   1_455  A
C946       N2706   1.347       .  A
C946        C954   1.378       .  A
C946        C963   1.397       .  A
C947        C962   1.407       .  A
C947        C955   1.379       .  A
C948        C960   1.399       .  A
C948        C956   1.377       .  A
C949       N1382   1.345       .  A
C949        C963   1.410       .  A
C949        C957   1.389       .  A
C950        C958   1.394       .  A
C950        C961   1.409       .  A
C951       N1384   1.344       .  A
C951        C959   1.376       .  A
C951        C962   1.389       .  A
C952       C2717   1.371       .  A
C952        H964   1.066       .  S
C953       C2716   1.371       .  A
C953        H965   1.082   1_655  S
C954       C2719   1.352       .  A
C954        H966   1.079       .  S
C955       C2718   1.352       .  A
C955        H967   1.068       .  S
C956       C1398   1.362   1_554  A
C956        H968   1.074       .  S
C957       C1397   1.362       .  A
C957        H969   1.076       .  S
C958       C1400   1.368       .  A
C958        H970   1.078       .  S
C959       C1399   1.368       .  A
C959        H971   1.081       .  S
C960       C1297   1.518       .  S
C961       C1314   1.476       .  S
C962       C1283   1.466       .  S
C963       C1272   1.483       .  S
O974        C982   1.240       .  A
O974       Co994   1.946       .  S
O975        C983   1.260       .  A
O975       Co995   2.027       .  S
O976        C984   1.313       .  A
O976       Co996   2.175       .  S
O977        C985   1.325       .  A
O977      Co2761   2.223       .  S
O978        C984   1.259       .  A
O978       Co995   1.904       .  S
O979        C985   1.239       .  A
O979       Co994   1.842       .  S
O980        C983   1.278       .  A
O980       Co997   2.073       .  S
O981        C982   1.259       .  A
O981      Co2760   2.006   1_455  S
C983       C1090   1.537       .  S
C985       C1066   1.539       .  S
O986        C999   1.287       .  A
O986       Co994   2.038       .  S
O987       C1000   1.301       .  A
O987       Co995   2.130       .  S
O988       C1001   1.282       .  A
O988      Co2760   2.058   1_455  S
O989       C1002   1.302       .  A
O989       Co997   2.106       .  S
O990       C1002   1.285       .  A
O990       Co995   1.972       .  S
O991       C1001   1.283       .  A
O991       Co994   2.012       .  S
O992        C999   1.282       .  A
O992      Co2761   2.089       .  S
O993       C1000   1.268       .  A
O993       Co996   2.003       .  S
Co994      O2762   1.924       .  S
Co995       O998   1.970       .  S
Co996      O2745   2.006       .  S
Co996      O2752   2.058       .  S
Co996       O998   2.219       .  S
Co997      O2741   2.223       .  S
Co997      O2756   2.089       .  S
Co997       O998   2.233       .  S
O998      Co2758   1.924       .  S
C1000      C1076   1.553       .  S
C1001      C1083   1.507       .  S
N1003      C1007   1.369       .  A
N1003      C1004   1.352       .  A
N1003      C1258   1.419       .  S
C1004      C1135   1.492       .  S
C1004      C1005   1.366       .  A
C1005      C1006   1.387       .  A
C1005      H1008   1.074       .  S
C1006      C1007   1.379       .  A
C1006      H1009   1.078       .  S
N1010      C1014   1.387       .  A
N1010      C1011   1.391       .  A
N1010      C1241   1.444       .  S
C1011      C1012   1.376       .  A
C1012      C1013   1.381       .  A
C1012      H1015   1.080       .  S
C1013      C1014   1.378       .  A
C1013      H1016   1.073       .  S
C1014      C1137   1.542       .  S
N1017      C1021   1.367       .  A
N1017      C1018   1.365       .  A
N1017      C1230   1.421       .  S
C1018      C1019   1.360       .  A
C1019      C1020   1.389       .  A
C1019      H1022   1.079       .  S
C1020      C1021   1.374       .  A
C1020      H1023   1.080       .  S
C1021      C1155   1.521       .  S
N1024      C1028   1.375       .  A
N1024      C1025   1.373       .  A
N1024      C1216   1.419       .  S
C1025      C1152   1.530       .  S
C1025      C1026   1.380       .  A
C1026      C1027   1.384       .  A
C1026      H1029   1.082       .  S
C1027      C1028   1.388       .  A
C1027      H1030   1.080       .  S
N1031      C1035   1.360   1_545  A
N1031      H1063   1.038       .  S
N1032      C1039   1.345       .  A
N1032      C1481   1.346       .  A
N1033      C1037   1.336   1_545  A
N1033      H1064   1.043       .  S
N1034      C1041   1.344       .  A
N1034      C1483   1.353       .  A
C1035      C1043   1.379   1_565  A
C1035      C1051   1.408       .  A
C1036      C1052   1.403       .  A
C1036      C1044   1.379       .  A
C1037      C1045   1.380       .  A
C1037      C1054   1.384       .  A
C1038      C1053   1.392       .  A
C1038      C1046   1.386       .  A
C1039      C1051   1.402       .  A
C1039      C1047   1.386       .  A
C1040      N1473   1.346       .  A
C1040      C1054   1.401       .  A
C1040      C1048   1.379       .  A
C1041      C1049   1.383       .  A
C1041      C1052   1.399       .  A
C1042      N1475   1.353       .  A
C1042      C1050   1.387       .  A
C1042      C1053   1.414       .  A
C1043      H1055   1.081   1_545  S
C1044      H1056   1.081       .  S
C1045      H1057   1.081       .  S
C1046      H1058   1.082       .  S
C1047      C1489   1.342       .  A
C1047      H1059   1.081       .  S
C1048      C1488   1.342   1_554  A
C1048      H1060   1.077       .  S
C1049      C1491   1.375       .  A
C1049      H1061   1.082       .  S
C1050      C1490   1.375       .  A
C1050      H1062   1.077       .  S
C1051      C1213   1.483       .  S
C1052      C1227   1.492       .  S
C1053      C1244   1.514       .  S
C1054      C1255   1.473       .  S
N1065      C1069   1.379       .  A
N1065      C1066   1.370       .  A
N1065      C1202   1.412       .  S
C1066      C1067   1.385       .  A
C1067      C1068   1.374       .  A
C1067      H1070   1.083       .  S
C1068      C1069   1.383       .  A
C1068      H1071   1.080       .  S
C1069      C1154   1.528       .  S
N1072      C1076   1.380       .  A
N1072      C1073   1.375       .  A
N1072      C1188   1.414       .  S
C1073      C1136   1.542       .  S
C1073      C1074   1.381       .  A
C1074      C1075   1.391       .  A
C1074      H1077   1.081       .  S
C1075      C1076   1.387       .  A
C1075      H1078   1.082       .  S
N1079      C1083   1.363       .  A
N1079      C1080   1.374       .  A
N1079      C1174   1.418       .  S
C1080      C1153   1.527       .  S
C1080      C1081   1.386       .  A
C1081      C1082   1.370       .  A
C1081      H1084   1.076       .  S
C1082      C1083   1.377       .  A
C1082      H1085   1.082       .  S
N1086      C1090   1.387       .  A
N1086      C1087   1.362       .  A
N1086      C1157   1.439       .  S
C1087      C1138   1.499       .  S
C1087      C1088   1.356       .  A
C1088      C1089   1.385       .  A
C1088      H1091   1.076       .  S
C1089      C1090   1.384       .  A
C1089      H1092   1.082       .  S
N1093      C2862   1.351       .  A
N1093      C1097   1.346       .  A
N1093      H1125   1.039       .  S
N1094      C1101   1.350       .  A
N1095      C2864   1.355       .  A
N1095      C1099   1.347       .  A
N1095      H1126   1.037       .  S
N1096      C1103   1.338       .  A
C1097      C1105   1.387       .  A
C1097      C1113   1.407   1_655  A
C1098      N2857   1.351       .  A
C1098      C1114   1.399       .  A
C1098      C1106   1.387       .  A
C1099      C1107   1.375       .  A
C1099      C1116   1.394   1_655  A
C1100      N2859   1.355       .  A
C1100      C1115   1.423       .  A
C1100      C1108   1.386       .  A
C1101      C1113   1.422       .  A
C1101      C1109   1.387       .  A
C1102      C1116   1.399       .  A
C1102      C1110   1.376   1_565  A
C1103      C1111   1.387       .  A
C1103      C1114   1.407       .  A
C1104      C1112   1.377   1_565  A
C1104      C1115   1.397       .  A
C1105      C2870   1.370       .  A
C1105      H1117   1.082       .  S
C1106      C2869   1.370       .  A
C1106      H1118   1.083       .  S
C1107      C2872   1.346       .  A
C1107      H1119   1.083       .  S
C1108      C2871   1.346       .  A
C1108      H1120   1.065       .  S
C1109      H1121   1.068       .  S
C1110      H1122   1.081   1_545  S
C1111      H1123   1.076       .  S
C1112      H1124   1.082   1_545  S
C1113      C1171   1.476       .  S
C1114      C1185   1.509       .  S
C1115      C1160   1.496       .  S
C1116      C1199   1.471       .  S
O1127      C1135   1.257       .  A
O1127     Co1147   1.893       .  S
O1128      C1136   1.260       .  A
O1128     Co1148   2.008       .  S
O1129      C1137   1.309       .  A
O1129     Co1149   2.140       .  S
O1130      C1138   1.266       .  A
O1130     Co1150   2.030       .  S
O1131      C1137   1.287       .  A
O1131     Co1148   1.941       .  S
O1132      C1138   1.246       .  A
O1132     Co1147   1.978       .  S
O1133      C1136   1.268       .  A
O1134      C1135   1.302       .  A
O1139      C1152   1.294       .  A
O1139     Co1147   2.064       .  S
O1140      C1153   1.252       .  A
O1140     Co1148   1.977       .  S
O1141      C1154   1.288       .  A
O1142      C1155   1.268       .  A
O1143      C1155   1.304       .  A
O1143     Co1148   2.109       .  S
O1144      C1154   1.271       .  A
O1144     Co1147   1.981       .  S
O1145      C1152   1.280       .  A
O1145     Co1150   2.057       .  S
O1146      C1153   1.275       .  A
O1146     Co1149   2.074       .  S
Co1147     O1151   1.960       .  S
Co1150     O1151   2.147       .  S
C1156      C1157   1.402       .  A
C1156      C1161   1.411       .  A
C1156      H1163   1.071       .  S
C1157      C1158   1.420       .  A
C1158      C1159   1.399       .  A
C1158      N1165   1.432       .  S
C1159      C1160   1.396       .  A
C1159      H1164   1.070       .  S
C1160      C1161   1.400       .  A
C1161      N1162   1.421       .  S
N1162      H1166   1.044       .  S
N1162      H1167   1.044       .  S
N1165      H1168   1.045       .  S
N1165      H1169   1.044       .  S
C1170      C1171   1.406       .  A
C1170      C1175   1.395       .  A
C1170      H1177   1.078   1_455  S
C1171      C1172   1.392       .  A
C1172      C1173   1.391       .  A
C1172      N1179   1.427       .  S
C1173      C1174   1.415       .  A
C1173      H1178   1.079       .  S
C1174      C1175   1.404       .  A
C1175      N1176   1.432       .  S
N1176      H1180   1.045       .  S
N1176      H1181   1.043       .  S
N1179      H1182   1.045       .  S
N1179      H1183   1.044       .  S
C1184      C1185   1.403       .  A
C1184      C1189   1.404       .  A
C1184      H1191   1.074       .  S
C1185      C1186   1.420       .  A
C1186      C1187   1.392       .  A
C1186      N1193   1.422       .  S
C1187      C1188   1.384       .  A
C1187      H1192   1.084       .  S
C1188      C1189   1.392       .  A
C1189      N1190   1.439       .  S
N1190      H1194   1.040       .  S
N1190      H1195   1.044       .  S
N1193      H1196   1.036       .  S
N1193      H1197   1.038       .  S
C1198      C1199   1.382       .  A
C1198      C1203   1.375       .  A
C1198      H1205   1.071       .  S
C1199      C1200   1.416       .  A
C1200      C1201   1.397       .  A
C1200      N1207   1.436       .  S
C1201      C1202   1.397       .  A
C1201      H1206   1.079       .  S
C1202      C1203   1.394       .  A
C1203      N1204   1.428       .  S
N1204      H1208   1.037       .  S
N1204      H1209   1.042       .  S
N1207      H1210   1.044       .  S
N1207      H1211   1.045       .  S
C1212      C1213   1.410       .  A
C1212      C1217   1.390       .  A
C1212      H1219   1.082       .  S
C1213      C1214   1.400       .  A
C1214      C1215   1.383       .  A
C1214      N1221   1.427       .  S
C1215      C1216   1.400       .  A
C1215      H1220   1.081       .  S
C1216      C1217   1.398       .  A
C1217      N1218   1.430       .  S
N1218      H1222   1.046       .  S
N1218      H1223   1.046       .  S
N1221      H1224   1.042       .  S
N1221      H1225   1.045       .  S
C1226      C1227   1.403       .  A
C1226      C1231   1.396       .  A
C1226      H1233   1.073       .  S
C1227      C1228   1.431       .  A
C1228      C1229   1.394       .  A
C1228      N1235   1.441       .  S
C1229      C1230   1.395       .  A
C1229      H1234   1.084       .  S
C1230      C1231   1.383       .  A
C1231      N1232   1.419       .  S
N1232      H1236   1.046       .  S
N1232      H1237   1.044       .  S
N1235      H1238   1.033       .  S
N1235      H1239   1.044       .  S
C1240      C1241   1.397       .  A
C1240      C1245   1.403       .  A
C1240      H1247   1.066       .  S
C1241      C1242   1.399       .  A
C1242      C1243   1.396       .  A
C1242      N1249   1.434       .  S
C1243      C1244   1.410       .  A
C1243      H1248   1.070       .  S
C1244      C1245   1.419       .  A
C1245      N1246   1.429       .  S
N1246      H1250   1.043       .  S
N1246      H1251   1.045       .  S
N1249      H1252   1.044       .  S
N1249      H1253   1.044       .  S
C1254      C1255   1.405       .  A
C1254      C1259   1.397       .  A
C1254      H1261   1.085       .  S
C1255      C1256   1.398       .  A
C1256      C1257   1.400       .  A
C1256      N1263   1.422       .  S
C1257      C1258   1.393       .  A
C1257      H1262   1.082       .  S
C1258      C1259   1.412       .  A
C1259      N1260   1.432       .  S
N1260      H1264   1.046       .  S
N1260      H1265   1.046       .  S
N1263      H1266   1.043       .  S
N1263      H1267   1.043       .  S
C1268      C1269   1.380       .  A
C1268      C1273   1.388       .  A
C1268      H1275   1.084       .  S
C1269      C1270   1.394       .  A
C1270      C1271   1.381       .  A
C1270      N1277   1.428       .  S
C1271      C1272   1.389       .  A
C1271      H1276   1.073       .  S
C1272      C1273   1.425       .  A
C1273      N1274   1.429       .  S
N1274      H1278   1.045       .  S
N1274      H1279   1.045       .  S
N1277      H1280   1.045       .  S
N1277      H1281   1.040       .  S
C1282      C1283   1.391       .  A
C1282      C1287   1.387       .  A
C1282      H1289   1.081       .  S
C1283      C1284   1.402       .  A
C1284      C1285   1.394       .  A
C1284      N1291   1.425       .  S
C1285      C1286   1.393       .  A
C1285      H1290   1.083       .  S
C1286      C1287   1.425       .  A
C1287      N1288   1.436       .  S
N1288      H1292   1.042       .  S
N1288      H1293   1.042       .  S
N1291      H1294   1.043       .  S
N1291      H1295   1.045       .  S
C1296      C1297   1.392       .  A
C1296      C1301   1.404       .  A
C1296      H1303   1.056       .  S
C1297      C1298   1.421       .  A
C1298      C1299   1.405       .  A
C1298      N1305   1.419       .  S
C1299      C1300   1.387       .  A
C1299      H1304   1.084       .  S
C1300      C1301   1.405       .  A
C1301      N1302   1.433       .  S
N1302      H1306   1.043       .  S
N1302      H1307   1.043       .  S
N1305      H1308   1.042       .  S
N1305      H1309   1.043       .  S
C1310      C1311   1.418       .  A
C1310      C1315   1.403       .  A
C1310      H1317   1.082       .  S
C1311      C1312   1.422       .  A
C1312      C1313   1.395       .  A
C1312      N1319   1.436       .  S
C1313      C1314   1.395       .  A
C1313      H1318   1.074       .  S
C1314      C1315   1.378       .  A
C1315      N1316   1.423       .  S
N1316      H1320   1.046       .  S
N1316      H1321   1.041       .  S
N1319      H1322   1.046       .  S
N1319      H1323   1.043       .  S
O1324      C1332   1.262       .  A
O1324     Co1344   2.007       .  S
O1325      C1333   1.268       .  A
O1325     Co1345   1.897       .  S
O1326      C1334   1.285       .  A
O1326     Co1346   2.084       .  S
O1327      C1335   1.306       .  A
O1327     Co1347   2.119       .  S
O1328      C1334   1.274       .  A
O1328     Co1345   2.005       .  S
O1329      C1335   1.268       .  A
O1329     Co1344   1.924       .  S
O1330      C1333   1.326       .  A
O1331      C1332   1.273       .  A
C1332      C1448   1.514       .  S
C1333      C1371   1.546       .  S
C1334      C1469   1.537       .  S
C1335      C1354   1.504       .  S
O1336      C1349   1.283       .  A
O1336     Co1344   2.032       .  S
O1337      C1350   1.262       .  A
O1337     Co1345   1.977       .  S
O1338      C1351   1.291       .  A
O1339      C1352   1.255       .  A
O1340      C1352   1.243       .  A
O1340     Co1345   1.990       .  S
O1341      C1351   1.306       .  A
O1341     Co1344   2.078       .  S
O1342      C1349   1.278       .  A
O1342     Co1347   2.080       .  S
O1343      C1350   1.282       .  A
O1343     Co1346   2.059       .  S
Co1344     O1348   1.979       .  S
Co1347     O1348   2.299       .  S
C1349      C1452   1.553       .  S
C1350      C1378   1.510       .  S
C1351      C1361   1.549       .  S
C1352      C1459   1.509       .  S
N1353      C1357   1.352       .  A
N1353      C1354   1.375       .  A
N1353      C1752   1.425       .  S
C1354      C1355   1.373       .  A
C1355      C1356   1.373       .  A
C1355      H1358   1.072       .  S
C1356      C1357   1.365       .  A
C1356      H1359   1.070       .  S
C1357      C1423   1.477       .  S
N1360      C1364   1.383       .  A
N1360      C1361   1.384       .  A
N1360      C1741   1.434       .  S
C1361      C1362   1.383       .  A
C1362      C1363   1.377       .  A
C1362      H1365   1.080       .  S
C1363      C1364   1.379       .  A
C1363      H1366   1.082       .  S
C1364      C1425   1.525       .  S
N1367      C1371   1.372       .  A
N1367      C1368   1.392       .  A
N1367      C1727   1.416       .  S
C1368      C1440   1.558       .  S
C1368      C1369   1.388       .  A
C1369      C1370   1.372       .  A
C1369      H1372   1.079       .  S
C1370      C1371   1.382       .  A
C1370      H1373   1.082       .  S
N1374      C1378   1.369       .  A
N1374      C1375   1.367       .  A
N1374      C1710   1.405       .  S
C1375      C1443   1.520       .  S
C1375      C1376   1.376       .  A
C1376      C1377   1.370       .  A
C1376      H1379   1.080       .  S
C1377      C1378   1.372       .  A
C1377      H1380   1.082       .  S
N1381      C1386   1.347   1_655  A
N1381      C3149   1.343       .  A
N1381      H1413   1.025   1_655  S
N1382      C1389   1.346       .  A
N1383      C1388   1.348       .  A
N1383      C3151   1.347   1_455  A
N1383      H1414   1.032   1_556  S
N1384      C1391   1.341       .  A
C1385      N3145   1.343       .  A
C1385      C1393   1.375       .  A
C1385      C1401   1.402       .  A
C1386      C1402   1.398       .  A
C1386      C1394   1.383   1_455  A
C1387      N3147   1.347       .  A
C1387      C1395   1.378       .  A
C1387      C1404   1.398       .  A
C1388      C1403   1.407       .  A
C1388      C1396   1.379       .  A
C1389      C1401   1.398       .  A
C1389      C1397   1.377       .  A
C1390      C1404   1.410       .  A
C1390      C1398   1.389       .  A
C1391      C1399   1.394       .  A
C1391      C1402   1.409       .  A
C1392      C1400   1.376       .  A
C1392      C1403   1.389   1_554  A
C1393      C3158   1.371       .  A
C1393      H1405   1.066       .  S
C1394      C3157   1.371       .  A
C1394      H1406   1.082   1_655  S
C1395      C3160   1.352       .  A
C1395      H1407   1.079       .  S
C1396      C3159   1.352       .  A
C1396      H1408   1.068       .  S
C1397      H1409   1.074       .  S
C1398      H1410   1.076       .  S
C1399      H1411   1.078       .  S
C1400      H1412   1.081       .  S
C1401      C1738   1.518       .  S
C1402      C1755   1.476       .  S
C1403      C1724   1.466       .  S
C1404      C1713   1.484       .  S
O1415      C1423   1.240       .  A
O1415     Co1435   1.945       .  S
O1416      C1424   1.260       .  A
O1416     Co1436   2.027       .  S
O1417      C1425   1.313       .  A
O1417     Co1437   2.175       .  S
O1418      C1426   1.325       .  A
O1418     Co3202   2.223       .  S
O1419      C1425   1.259       .  A
O1419     Co1436   1.904       .  S
O1420      C1426   1.239       .  A
O1420     Co1435   1.842       .  S
O1421      C1424   1.278       .  A
O1421     Co1438   2.073       .  S
O1422      C1423   1.259       .  A
O1422     Co3201   2.007   1_455  S
C1424      C1531   1.536       .  S
C1426      C1507   1.540       .  S
O1427      C1440   1.287       .  A
O1427     Co1435   2.037       .  S
O1428      C1441   1.301       .  A
O1428     Co1436   2.130       .  S
O1429      C1442   1.282       .  A
O1429     Co3201   2.057   1_455  S
O1430      C1443   1.302       .  A
O1430     Co1438   2.107       .  S
O1431      C1443   1.285       .  A
O1431     Co1436   1.972       .  S
O1432      C1442   1.283       .  A
O1432     Co1435   2.012       .  S
O1433      C1440   1.282       .  A
O1433     Co3202   2.089       .  S
O1434      C1441   1.268       .  A
O1434     Co1437   2.003       .  S
Co1435     O3203   1.924       .  S
Co1436     O1439   1.970       .  S
Co1437     O3186   2.007       .  S
Co1437     O3193   2.057       .  S
Co1437     O1439   2.219       .  S
Co1438     O3182   2.223       .  S
Co1438     O3197   2.089       .  S
Co1438     O1439   2.233       .  S
O1439     Co3199   1.924       .  S
C1441      C1517   1.553       .  S
C1442      C1524   1.506       .  S
N1444      C1448   1.369       .  A
N1444      C1445   1.352       .  A
N1444      C1699   1.419       .  S
C1445      C1576   1.492       .  S
C1445      C1446   1.366       .  A
C1446      C1447   1.387       .  A
C1446      H1449   1.073       .  S
C1447      C1448   1.379       .  A
C1447      H1450   1.078       .  S
N1451      C1455   1.388       .  A
N1451      C1452   1.391       .  A
N1451      C1682   1.444       .  S
C1452      C1453   1.376       .  A
C1453      C1454   1.380       .  A
C1453      H1456   1.080       .  S
C1454      C1455   1.378       .  A
C1454      H1457   1.073       .  S
C1455      C1578   1.541       .  S
N1458      C1462   1.367       .  A
N1458      C1459   1.365       .  A
N1458      C1671   1.420       .  S
C1459      C1460   1.360       .  A
C1460      C1461   1.389       .  A
C1460      H1463   1.079       .  S
C1461      C1462   1.373       .  A
C1461      H1464   1.080       .  S
C1462      C1596   1.521       .  S
N1465      C1469   1.375       .  A
N1465      C1466   1.374       .  A
N1465      C1657   1.419       .  S
C1466      C1593   1.531       .  S
C1466      C1467   1.380       .  A
C1467      C1468   1.385       .  A
C1467      H1470   1.082       .  S
C1468      C1469   1.388       .  A
C1468      H1471   1.080       .  S
N1472      C1476   1.359   1_545  A
N1472      H1504   1.038       .  S
N1473      C1480   1.345   1_554  A
N1474      C1478   1.336   1_545  A
N1474      H1505   1.043       .  S
N1475      C1482   1.344   1_554  A
C1476      C1484   1.379   1_565  A
C1476      C1492   1.408       .  A
C1477      C1493   1.403       .  A
C1477      C1485   1.379       .  A
C1478      C1486   1.380       .  A
C1478      C1495   1.384       .  A
C1479      C1494   1.392       .  A
C1479      C1487   1.386       .  A
C1480      C1492   1.402       .  A
C1480      C1488   1.386       .  A
C1481      C1495   1.401       .  A
C1481      C1489   1.378       .  A
C1482      C1490   1.383   1_556  A
C1482      C1493   1.398       .  A
C1483      C1491   1.387       .  A
C1483      C1494   1.414       .  A
C1484      H1496   1.081   1_545  S
C1485      H1497   1.081       .  S
C1486      H1498   1.081       .  S
C1487      H1499   1.082       .  S
C1488      H1500   1.081       .  S
C1489      H1501   1.077       .  S
C1490      H1502   1.082   1_554  S
C1491      H1503   1.077       .  S
C1492      C1654   1.482       .  S
C1493      C1668   1.492       .  S
C1494      C1685   1.514       .  S
C1495      C1696   1.473       .  S
N1506      C1510   1.379       .  A
N1506      C1507   1.370       .  A
N1506      C1643   1.412       .  S
C1507      C1508   1.385       .  A
C1508      C1509   1.374       .  A
C1508      H1511   1.083       .  S
C1509      C1510   1.383       .  A
C1509      H1512   1.080       .  S
C1510      C1595   1.528       .  S
N1513      C1517   1.380       .  A
N1513      C1514   1.375       .  A
N1513      C1629   1.414       .  S
C1514      C1577   1.542       .  S
C1514      C1515   1.381       .  A
C1515      C1516   1.391       .  A
C1515      H1518   1.081       .  S
C1516      C1517   1.387       .  A
C1516      H1519   1.082       .  S
N1520      C1524   1.363       .  A
N1520      C1521   1.374       .  A
N1520      C1615   1.418       .  S
C1521      C1594   1.527       .  S
C1521      C1522   1.386       .  A
C1522      C1523   1.370       .  A
C1522      H1525   1.076       .  S
C1523      C1524   1.377       .  A
C1523      H1526   1.082       .  S
N1527      C1531   1.387       .  A
N1527      C1528   1.362       .  A
N1527      C1598   1.439       .  S
C1528      C1579   1.499       .  S
C1528      C1529   1.355       .  A
C1529      C1530   1.385       .  A
C1529      H1532   1.076       .  S
C1530      C1531   1.384       .  A
C1530      H1533   1.082       .  S
N1534      C3303   1.351       .  A
N1534      C1538   1.346       .  A
N1534      H1566   1.039       .  S
N1535      C1542   1.350       .  A
N1536      C3305   1.355       .  A
N1536      C1540   1.347       .  A
N1536      H1567   1.037       .  S
N1537      C1544   1.338       .  A
C1538      C1546   1.387       .  A
C1538      C1554   1.407   1_655  A
C1539      N3298   1.351       .  A
C1539      C1555   1.399       .  A
C1539      C1547   1.387       .  A
C1540      C1548   1.375       .  A
C1540      C1557   1.394   1_655  A
C1541      N3300   1.355       .  A
C1541      C1556   1.422       .  A
C1541      C1549   1.386       .  A
C1542      C1554   1.422       .  A
C1542      C1550   1.387       .  A
C1543      C1557   1.398       .  A
C1543      C1551   1.376   1_565  A
C1544      C1552   1.387       .  A
C1544      C1555   1.407       .  A
C1545      C1553   1.377   1_565  A
C1545      C1556   1.397       .  A
C1546      C3311   1.370       .  A
C1546      H1558   1.082       .  S
C1547      C3310   1.370       .  A
C1547      H1559   1.083       .  S
C1548      C3313   1.346       .  A
C1548      H1560   1.083       .  S
C1549      C3312   1.346       .  A
C1549      H1561   1.065       .  S
C1550      H1562   1.068       .  S
C1551      H1563   1.081   1_545  S
C1552      H1564   1.075       .  S
C1553      H1565   1.082   1_545  S
C1554      C1612   1.476       .  S
C1555      C1626   1.509       .  S
C1556      C1601   1.496       .  S
C1557      C1640   1.471       .  S
O1568      C1576   1.257       .  A
O1568     Co1588   1.893       .  S
O1569      C1577   1.260       .  A
O1569     Co1589   2.008       .  S
O1570      C1578   1.309       .  A
O1570     Co1590   2.140       .  S
O1571      C1579   1.266       .  A
O1571     Co1591   2.030       .  S
O1572      C1578   1.287       .  A
O1572     Co1589   1.941       .  S
O1573      C1579   1.245       .  A
O1573     Co1588   1.978       .  S
O1574      C1577   1.268       .  A
O1575      C1576   1.302       .  A
O1580      C1593   1.294       .  A
O1580     Co1588   2.065       .  S
O1581      C1594   1.252       .  A
O1581     Co1589   1.977       .  S
O1582      C1595   1.288       .  A
O1583      C1596   1.268       .  A
O1584      C1596   1.304       .  A
O1584     Co1589   2.109       .  S
O1585      C1595   1.271       .  A
O1585     Co1588   1.981       .  S
O1586      C1593   1.280       .  A
O1586     Co1591   2.058       .  S
O1587      C1594   1.275       .  A
O1587     Co1590   2.074       .  S
Co1588     O1592   1.960       .  S
Co1591     O1592   2.147       .  S
C1597      C1598   1.402       .  A
C1597      C1602   1.411       .  A
C1597      H1604   1.071       .  S
C1598      C1599   1.420       .  A
C1599      C1600   1.399       .  A
C1599      N1606   1.432       .  S
C1600      C1601   1.396       .  A
C1600      H1605   1.070       .  S
C1601      C1602   1.400       .  A
C1602      N1603   1.421       .  S
N1603      H1607   1.044       .  S
N1603      H1608   1.044       .  S
N1606      H1609   1.045       .  S
N1606      H1610   1.044       .  S
C1611      C1612   1.406       .  A
C1611      C1616   1.395       .  A
C1611      H1618   1.078   1_455  S
C1612      C1613   1.392       .  A
C1613      C1614   1.391       .  A
C1613      N1620   1.427       .  S
C1614      C1615   1.415       .  A
C1614      H1619   1.079       .  S
C1615      C1616   1.404       .  A
C1616      N1617   1.432       .  S
N1617      H1621   1.045       .  S
N1617      H1622   1.043       .  S
N1620      H1623   1.045       .  S
N1620      H1624   1.044       .  S
C1625      C1626   1.404       .  A
C1625      C1630   1.404       .  A
C1625      H1632   1.074       .  S
C1626      C1627   1.420       .  A
C1627      C1628   1.392       .  A
C1627      N1634   1.422       .  S
C1628      C1629   1.384       .  A
C1628      H1633   1.084       .  S
C1629      C1630   1.392       .  A
C1630      N1631   1.439       .  S
N1631      H1635   1.040       .  S
N1631      H1636   1.044       .  S
N1634      H1637   1.036       .  S
N1634      H1638   1.038       .  S
C1639      C1640   1.382       .  A
C1639      C1644   1.375       .  A
C1639      H1646   1.071       .  S
C1640      C1641   1.417       .  A
C1641      C1642   1.397       .  A
C1641      N1648   1.436       .  S
C1642      C1643   1.396       .  A
C1642      H1647   1.079       .  S
C1643      C1644   1.394       .  A
C1644      N1645   1.428       .  S
N1645      H1649   1.038       .  S
N1645      H1650   1.042       .  S
N1648      H1651   1.044       .  S
N1648      H1652   1.045       .  S
C1653      C1654   1.410       .  A
C1653      C1658   1.390       .  A
C1653      H1660   1.082       .  S
C1654      C1655   1.400       .  A
C1655      C1656   1.382       .  A
C1655      N1662   1.427       .  S
C1656      C1657   1.400       .  A
C1656      H1661   1.081       .  S
C1657      C1658   1.397       .  A
C1658      N1659   1.430       .  S
N1659      H1663   1.046       .  S
N1659      H1664   1.046       .  S
N1662      H1665   1.042       .  S
N1662      H1666   1.045       .  S
C1667      C1668   1.403       .  A
C1667      C1672   1.396       .  A
C1667      H1674   1.073       .  S
C1668      C1669   1.431       .  A
C1669      C1670   1.394       .  A
C1669      N1676   1.441       .  S
C1670      C1671   1.395       .  A
C1670      H1675   1.084       .  S
C1671      C1672   1.383       .  A
C1672      N1673   1.419       .  S
N1673      H1677   1.046       .  S
N1673      H1678   1.044       .  S
N1676      H1679   1.033   1_556  S
N1676      H1680   1.044       .  S
C1681      C1682   1.398       .  A
C1681      C1686   1.404       .  A
C1681      H1688   1.067       .  S
C1682      C1683   1.399       .  A
C1683      C1684   1.396       .  A
C1683      N1690   1.434       .  S
C1684      C1685   1.410       .  A
C1684      H1689   1.070       .  S
C1685      C1686   1.419       .  A
C1686      N1687   1.430       .  S
N1687      H1691   1.043       .  S
N1687      H1692   1.045       .  S
N1690      H1693   1.044       .  S
N1690      H1694   1.044       .  S
C1695      C1696   1.405       .  A
C1695      C1700   1.397       .  A
C1695      H1702   1.085       .  S
C1696      C1697   1.399       .  A
C1697      C1698   1.400       .  A
C1697      N1704   1.422       .  S
C1698      C1699   1.393       .  A
C1698      H1703   1.082       .  S
C1699      C1700   1.411       .  A
C1700      N1701   1.432       .  S
N1701      H1705   1.046       .  S
N1701      H1706   1.046       .  S
N1704      H1707   1.042       .  S
N1704      H1708   1.044       .  S
C1709      C1710   1.380       .  A
C1709      C1714   1.387       .  A
C1709      H1716   1.084       .  S
C1710      C1711   1.394       .  A
C1711      C1712   1.382       .  A
C1711      N1718   1.428       .  S
C1712      C1713   1.389       .  A
C1712      H1717   1.073       .  S
C1713      C1714   1.425       .  A
C1714      N1715   1.429       .  S
N1715      H1719   1.045       .  S
N1715      H1720   1.045       .  S
N1718      H1721   1.045       .  S
N1718      H1722   1.040       .  S
C1723      C1724   1.391       .  A
C1723      C1728   1.388       .  A
C1723      H1730   1.081       .  S
C1724      C1725   1.402       .  A
C1725      C1726   1.394       .  A
C1725      N1732   1.425       .  S
C1726      C1727   1.393       .  A
C1726      H1731   1.083       .  S
C1727      C1728   1.426       .  A
C1728      N1729   1.436       .  S
N1729      H1733   1.042       .  S
N1729      H1734   1.042       .  S
N1732      H1735   1.043       .  S
N1732      H1736   1.045   1_556  S
C1737      C1738   1.391       .  A
C1737      C1742   1.404       .  A
C1737      H1744   1.055       .  S
C1738      C1739   1.421       .  A
C1739      C1740   1.405       .  A
C1739      N1746   1.419       .  S
C1740      C1741   1.387       .  A
C1740      H1745   1.084       .  S
C1741      C1742   1.405       .  A
C1742      N1743   1.433       .  S
N1743      H1747   1.043       .  S
N1743      H1748   1.043       .  S
N1746      H1749   1.042       .  S
N1746      H1750   1.043       .  S
C1751      C1752   1.418       .  A
C1751      C1756   1.404       .  A
C1751      H1758   1.082       .  S
C1752      C1753   1.422       .  A
C1753      C1754   1.394       .  A
C1753      N1760   1.436       .  S
C1754      C1755   1.395       .  A
C1754      H1759   1.074       .  S
C1755      C1756   1.378       .  A
C1756      N1757   1.423       .  S
N1757      H1761   1.046       .  S
N1757      H1762   1.041       .  S
N1760      H1763   1.046       .  S
N1760      H1764   1.043       .  S
O1765      C1773   1.262       .  A
O1765     Co1785   2.007       .  S
O1766      C1774   1.268       .  A
O1766     Co1786   1.897       .  S
O1767      C1775   1.285       .  A
O1767     Co1787   2.083       .  S
O1768      C1776   1.306       .  A
O1768     Co1788   2.118   1_554  S
O1769      C1775   1.274       .  A
O1769     Co1786   2.005       .  S
O1770      C1776   1.268       .  A
O1770     Co1785   1.924       .  S
O1771      C1774   1.326       .  A
O1771     Co2229   2.186       .  S
O1772      C1773   1.273       .  A
O1772     Co2228   2.037   1_554  S
C1773      C1889   1.514       .  S
C1774      C1812   1.546       .  S
C1775      C1910   1.537       .  S
C1776      C1795   1.504       .  S
O1777      C1790   1.282       .  A
O1777     Co1785   2.032       .  S
O1778      C1791   1.262       .  A
O1778     Co1786   1.977       .  S
O1779      C1792   1.291       .  A
O1779     Co2228   2.077   1_554  S
O1780      C1793   1.255       .  A
O1780     Co2229   2.033       .  S
O1781      C1793   1.243       .  A
O1781     Co1786   1.990       .  S
O1782      C1792   1.306       .  A
O1782     Co1785   2.078       .  S
O1783      C1790   1.278       .  A
O1783     Co1788   2.080   1_554  S
O1784      C1791   1.282       .  A
O1784     Co1787   2.059       .  S
Co1785     O1789   1.979   1_554  S
Co1786     O2230   1.955       .  S
Co1787     O2213   2.037       .  S
Co1787     O2220   2.077       .  S
Co1787     O2230   2.147       .  S
Co1788     O2212   2.187       .  S
Co1788     O2221   2.033       .  S
Co1788     O1789   2.299       .  S
O1789     Co2227   1.955       .  S
O1789     Co2228   2.147       .  S
C1790      C1893   1.553       .  S
C1791      C1819   1.511       .  S
C1792      C1802   1.549       .  S
C1793      C1900   1.509       .  S
N1794      C1798   1.352       .  A
N1794      C1795   1.375       .  A
N1794      C2193   1.425       .  S
C1795      C1796   1.373       .  A
C1796      C1797   1.373       .  A
C1796      H1799   1.073       .  S
C1797      C1798   1.365       .  A
C1797      H1800   1.070       .  S
C1798      C1864   1.477       .  S
N1801      C1805   1.383       .  A
N1801      C1802   1.384       .  A
N1801      C2182   1.434       .  S
C1802      C1803   1.383       .  A
C1803      C1804   1.377       .  A
C1803      H1806   1.080       .  S
C1804      C1805   1.379       .  A
C1804      H1807   1.082       .  S
C1805      C1866   1.525       .  S
N1808      C1812   1.372       .  A
N1808      C1809   1.393       .  A
N1808      C2168   1.416       .  S
C1809      C1881   1.558       .  S
C1809      C1810   1.388       .  A
C1810      C1811   1.372       .  A
C1810      H1813   1.079       .  S
C1811      C1812   1.382       .  A
C1811      H1814   1.082       .  S
N1815      C1819   1.369       .  A
N1815      C1816   1.367       .  A
N1815      C2151   1.405       .  S
C1816      C1884   1.520       .  S
C1816      C1817   1.376       .  A
C1817      C1818   1.370       .  A
C1817      H1820   1.080       .  S
C1818      C1819   1.372       .  A
C1818      H1821   1.082       .  S
N1822      C1827   1.347       .  A
N1822      H1854   1.025       .  S
N1823      C1830   1.347       .  A
N1823      C2272   1.345   1_554  A
N1824      C1829   1.348       .  A
N1824      H1855   1.032       .  S
N1825      C1832   1.341       .  A
N1825      C2274   1.344       .  A
C1826      C1834   1.375       .  A
C1826      C1842   1.402       .  A
C1827      C1843   1.398       .  A
C1827      C1835   1.383       .  A
C1828      C1836   1.378   1_655  A
C1828      C1845   1.397       .  A
C1829      C1844   1.407       .  A
C1829      C1837   1.379       .  A
C1830      C1842   1.399       .  A
C1830      C1838   1.377       .  A
C1831      N2264   1.345       .  A
C1831      C1845   1.410       .  A
C1831      C1839   1.389       .  A
C1832      C1840   1.394       .  A
C1832      C1843   1.409       .  A
C1833      N2266   1.344       .  A
C1833      C1841   1.376       .  A
C1833      C1844   1.389       .  A
C1834      H1846   1.066       .  S
C1835      H1847   1.082       .  S
C1836      H1848   1.079   1_455  S
C1837      H1849   1.068       .  S
C1838      C2280   1.362   1_554  A
C1838      H1850   1.074       .  S
C1839      C2279   1.362       .  A
C1839      H1851   1.076       .  S
C1840      C2282   1.368       .  A
C1840      H1852   1.078       .  S
C1841      C2281   1.368       .  A
C1841      H1853   1.081       .  S
C1842      C2179   1.518       .  S
C1843      C2196   1.476       .  S
C1844      C2165   1.466       .  S
C1845      C2154   1.483       .  S
O1856      C1864   1.240       .  A
O1856     Co1876   1.946       .  S
O1857      C1865   1.260       .  A
O1857     Co1877   2.027       .  S
O1858      C1866   1.313       .  A
O1858     Co1878   2.175       .  S
O1859      C1867   1.325       .  A
O1860      C1866   1.259       .  A
O1860     Co1877   1.904       .  S
O1861      C1867   1.239       .  A
O1861     Co1876   1.842       .  S
O1862      C1865   1.278       .  A
O1862     Co1879   2.073   1_655  S
O1863      C1864   1.259       .  A
C1865      C1972   1.537       .  S
C1867      C1948   1.539       .  S
O1868      C1881   1.287       .  A
O1868     Co1876   2.038       .  S
O1869      C1882   1.301       .  A
O1869     Co1877   2.130       .  S
O1870      C1883   1.282       .  A
O1871      C1884   1.302       .  A
O1871     Co1879   2.106   1_655  S
O1872      C1884   1.285       .  A
O1872     Co1877   1.972       .  S
O1873      C1883   1.283       .  A
O1873     Co1876   2.012       .  S
O1874      C1881   1.282       .  A
O1875      C1882   1.268       .  A
O1875     Co1878   2.003       .  S
Co1877     O1880   1.970   1_655  S
Co1878     O1880   2.219   1_655  S
Co1879     O1880   2.233       .  S
C1882      C1958   1.553       .  S
C1883      C1965   1.507       .  S
N1885      C1889   1.369       .  A
N1885      C1886   1.352       .  A
N1885      C2140   1.419       .  S
C1886      C2017   1.492       .  S
C1886      C1887   1.366       .  A
C1887      C1888   1.387       .  A
C1887      H1890   1.074       .  S
C1888      C1889   1.379       .  A
C1888      H1891   1.078       .  S
N1892      C1896   1.387       .  A
N1892      C1893   1.391       .  A
N1892      C2123   1.444       .  S
C1893      C1894   1.376       .  A
C1894      C1895   1.381       .  A
C1894      H1897   1.080       .  S
C1895      C1896   1.378       .  A
C1895      H1898   1.073       .  S
C1896      C2019   1.542       .  S
N1899      C1903   1.367       .  A
N1899      C1900   1.365       .  A
N1899      C2112   1.421       .  S
C1900      C1901   1.360       .  A
C1901      C1902   1.389       .  A
C1901      H1904   1.079       .  S
C1902      C1903   1.374       .  A
C1902      H1905   1.080       .  S
C1903      C2037   1.521       .  S
N1906      C1910   1.375       .  A
N1906      C1907   1.373       .  A
N1906      C2098   1.419       .  S
C1907      C2034   1.530       .  S
C1907      C1908   1.380       .  A
C1908      C1909   1.384       .  A
C1908      H1911   1.082       .  S
C1909      C1910   1.388       .  A
C1909      H1912   1.080       .  S
N1913      C2800   1.353       .  A
N1913      C1917   1.360       .  A
N1913      H1945   1.038       .  S
N1914      C1921   1.345       .  A
N1914      C2363   1.346       .  A
N1915      C2802   1.340       .  A
N1915      C1919   1.336       .  A
N1915      H1946   1.043       .  S
N1916      C1923   1.344       .  A
N1916      C2365   1.353       .  A
C1917      C1925   1.379       .  A
C1917      C1933   1.408       .  A
C1918      N2795   1.353       .  A
C1918      C1934   1.403       .  A
C1918      C1926   1.379       .  A
C1919      C1927   1.380       .  A
C1919      C1936   1.384       .  A
C1920      N2797   1.340       .  A
C1920      C1935   1.392       .  A
C1920      C1928   1.386       .  A
C1921      C1933   1.402       .  A
C1921      C1929   1.386       .  A
C1922      N2355   1.346       .  A
C1922      C1936   1.401       .  A
C1922      C1930   1.379       .  A
C1923      C1931   1.383       .  A
C1923      C1934   1.399       .  A
C1924      N2357   1.353       .  A
C1924      C1932   1.387       .  A
C1924      C1935   1.414       .  A
C1925      C2808   1.346       .  A
C1925      H1937   1.081       .  S
C1926      C2807   1.346       .  A
C1926      H1938   1.081       .  S
C1927      C2810   1.383       .  A
C1927      H1939   1.081       .  S
C1928      C2809   1.383   1_545  A
C1928      H1940   1.082       .  S
C1929      C2371   1.342       .  A
C1929      H1941   1.081       .  S
C1930      C2370   1.342   1_554  A
C1930      H1942   1.077       .  S
C1931      C2373   1.375       .  A
C1931      H1943   1.082       .  S
C1932      C2372   1.375       .  A
C1932      H1944   1.077       .  S
C1933      C2095   1.483       .  S
C1934      C2109   1.492       .  S
C1935      C2126   1.514       .  S
C1936      C2137   1.473       .  S
N1947      C1951   1.379       .  A
N1947      C1948   1.370       .  A
N1947      C2084   1.412       .  S
C1948      C1949   1.385       .  A
C1949      C1950   1.374       .  A
C1949      H1952   1.083       .  S
C1950      C1951   1.383       .  A
C1950      H1953   1.080       .  S
C1951      C2036   1.528       .  S
N1954      C1958   1.380       .  A
N1954      C1955   1.375       .  A
N1954      C2070   1.414       .  S
C1955      C2018   1.542       .  S
C1955      C1956   1.381       .  A
C1956      C1957   1.391       .  A
C1956      H1959   1.081       .  S
C1957      C1958   1.387       .  A
C1957      H1960   1.082       .  S
N1961      C1965   1.363       .  A
N1961      C1962   1.374       .  A
N1961      C2056   1.418       .  S
C1962      C2035   1.527       .  S
C1962      C1963   1.386       .  A
C1963      C1964   1.370       .  A
C1963      H1966   1.076       .  S
C1964      C1965   1.377       .  A
C1964      H1967   1.082       .  S
N1968      C1972   1.387       .  A
N1968      C1969   1.362       .  A
N1968      C2039   1.439       .  S
C1969      C2020   1.499       .  S
C1969      C1970   1.356       .  A
C1970      C1971   1.385       .  A
C1970      H1973   1.076       .  S
C1971      C1972   1.384       .  A
C1971      H1974   1.082       .  S
N1975      C1979   1.346       .  A
N1975      H2007   1.039       .  S
N1976      C1983   1.350       .  A
N1976      C2866   1.352   1_545  A
N1977      C1981   1.347       .  A
N1977      H2008   1.037       .  S
N1978      C1985   1.338       .  A
N1978      C2868   1.340   1_545  A
C1979      C1987   1.387       .  A
C1979      C1995   1.407       .  A
C1980      C1996   1.399       .  A
C1980      C1988   1.387       .  A
C1981      C1989   1.375       .  A
C1981      C1998   1.394       .  A
C1982      C1997   1.423       .  A
C1982      C1990   1.386       .  A
C1983      C1995   1.422       .  A
C1983      C1991   1.387       .  A
C1984      N2858   1.352       .  A
C1984      C1998   1.399       .  A
C1984      C1992   1.376       .  A
C1985      C1993   1.387       .  A
C1985      C1996   1.407       .  A
C1986      N2860   1.340       .  A
C1986      C1994   1.377       .  A
C1986      C1997   1.397       .  A
C1987      H1999   1.082       .  S
C1988      H2000   1.083       .  S
C1989      H2001   1.083       .  S
C1990      H2002   1.065       .  S
C1991      C2874   1.337       .  A
C1991      H2003   1.068       .  S
C1992      C2873   1.337       .  A
C1992      H2004   1.081       .  S
C1993      C2876   1.381       .  A
C1993      H2005   1.076       .  S
C1994      C2875   1.381       .  A
C1994      H2006   1.082       .  S
C1995      C2053   1.476       .  S
C1996      C2067   1.509       .  S
C1997      C2042   1.496       .  S
C1998      C2081   1.471       .  S
O2009      C2017   1.257       .  A
O2009     Co2029   1.893       .  S
O2010      C2018   1.260       .  A
O2010     Co2030   2.008       .  S
O2011      C2019   1.309       .  A
O2011     Co2031   2.140   1_545  S
O2012      C2020   1.266       .  A
O2012     Co2032   2.030       .  S
O2013      C2019   1.287       .  A
O2013     Co2030   1.941       .  S
O2014      C2020   1.246       .  A
O2014     Co2029   1.978       .  S
O2015      C2018   1.268       .  A
O2015     Co2914   2.081   1_545  S
O2016      C2017   1.302       .  A
O2016     Co2913   2.125       .  S
O2021      C2034   1.294       .  A
O2021     Co2029   2.064       .  S
O2022      C2035   1.252       .  A
O2022     Co2030   1.977       .  S
O2023      C2036   1.288       .  A
O2023     Co2913   2.117       .  S
O2024      C2037   1.268       .  A
O2024     Co2914   1.982   1_545  S
O2025      C2037   1.304       .  A
O2025     Co2030   2.109       .  S
O2026      C2036   1.271       .  A
O2026     Co2029   1.981       .  S
O2027      C2034   1.280       .  A
O2027     Co2032   2.057       .  S
O2028      C2035   1.275       .  A
O2028     Co2031   2.074   1_545  S
Co2029     O2033   1.960       .  S
Co2030     O2915   1.972   1_545  S
Co2031     O2898   2.125       .  S
Co2031     O2905   2.117       .  S
Co2031     O2915   2.277       .  S
Co2032     O2897   2.081       .  S
Co2032     O2906   1.982       .  S
Co2032     O2033   2.147       .  S
O2033     Co2912   1.972       .  S
O2033     Co2913   2.277       .  S
C2038      C2039   1.402       .  A
C2038      C2043   1.411       .  A
C2038      H2045   1.071       .  S
C2039      C2040   1.420       .  A
C2040      C2041   1.399       .  A
C2040      N2047   1.432       .  S
C2041      C2042   1.396       .  A
C2041      H2046   1.070       .  S
C2042      C2043   1.400       .  A
C2043      N2044   1.421       .  S
N2044      H2048   1.044       .  S
N2044      H2049   1.044       .  S
N2047      H2050   1.045       .  S
N2047      H2051   1.044       .  S
C2052      C2053   1.406       .  A
C2052      C2057   1.395       .  A
C2052      H2059   1.078       .  S
C2053      C2054   1.392       .  A
C2054      C2055   1.391       .  A
C2054      N2061   1.427       .  S
C2055      C2056   1.415       .  A
C2055      H2060   1.079       .  S
C2056      C2057   1.404       .  A
C2057      N2058   1.432       .  S
N2058      H2062   1.045       .  S
N2058      H2063   1.043       .  S
N2061      H2064   1.045       .  S
N2061      H2065   1.044       .  S
C2066      C2067   1.403       .  A
C2066      C2071   1.404       .  A
C2066      H2073   1.074       .  S
C2067      C2068   1.420       .  A
C2068      C2069   1.392       .  A
C2068      N2075   1.422       .  S
C2069      C2070   1.384       .  A
C2069      H2074   1.084       .  S
C2070      C2071   1.392       .  A
C2071      N2072   1.439       .  S
N2072      H2076   1.040       .  S
N2072      H2077   1.044       .  S
N2075      H2078   1.036       .  S
N2075      H2079   1.038       .  S
C2080      C2081   1.382       .  A
C2080      C2085   1.375       .  A
C2080      H2087   1.071       .  S
C2081      C2082   1.416       .  A
C2082      C2083   1.397       .  A
C2082      N2089   1.436       .  S
C2083      C2084   1.397       .  A
C2083      H2088   1.079       .  S
C2084      C2085   1.394       .  A
C2085      N2086   1.428       .  S
N2086      H2090   1.037       .  S
N2086      H2091   1.042       .  S
N2089      H2092   1.044       .  S
N2089      H2093   1.045       .  S
C2094      C2095   1.410       .  A
C2094      C2099   1.390       .  A
C2094      H2101   1.082       .  S
C2095      C2096   1.400       .  A
C2096      C2097   1.383       .  A
C2096      N2103   1.427       .  S
C2097      C2098   1.400       .  A
C2097      H2102   1.081       .  S
C2098      C2099   1.398       .  A
C2099      N2100   1.430       .  S
N2100      H2104   1.046       .  S
N2100      H2105   1.046       .  S
N2103      H2106   1.042       .  S
N2103      H2107   1.045       .  S
C2108      C2109   1.403       .  A
C2108      C2113   1.396       .  A
C2108      H2115   1.073       .  S
C2109      C2110   1.431       .  A
C2110      C2111   1.394       .  A
C2110      N2117   1.441       .  S
C2111      C2112   1.395       .  A
C2111      H2116   1.084       .  S
C2112      C2113   1.383       .  A
C2113      N2114   1.419       .  S
N2114      H2118   1.046       .  S
N2114      H2119   1.044       .  S
N2117      H2120   1.033       .  S
N2117      H2121   1.044       .  S
C2122      C2123   1.397       .  A
C2122      C2127   1.403       .  A
C2122      H2129   1.066       .  S
C2123      C2124   1.399       .  A
C2124      C2125   1.396       .  A
C2124      N2131   1.434       .  S
C2125      C2126   1.410       .  A
C2125      H2130   1.070       .  S
C2126      C2127   1.419       .  A
C2127      N2128   1.429       .  S
N2128      H2132   1.043       .  S
N2128      H2133   1.045       .  S
N2131      H2134   1.044       .  S
N2131      H2135   1.044       .  S
C2136      C2137   1.405       .  A
C2136      C2141   1.397       .  A
C2136      H2143   1.085       .  S
C2137      C2138   1.398       .  A
C2138      C2139   1.400       .  A
C2138      N2145   1.422       .  S
C2139      C2140   1.393       .  A
C2139      H2144   1.082       .  S
C2140      C2141   1.412       .  A
C2141      N2142   1.432       .  S
N2142      H2146   1.046       .  S
N2142      H2147   1.046       .  S
N2145      H2148   1.043       .  S
N2145      H2149   1.043       .  S
C2150      C2151   1.380       .  A
C2150      C2155   1.388       .  A
C2150      H2157   1.084       .  S
C2151      C2152   1.394       .  A
C2152      C2153   1.381       .  A
C2152      N2159   1.428       .  S
C2153      C2154   1.389       .  A
C2153      H2158   1.073       .  S
C2154      C2155   1.425       .  A
C2155      N2156   1.429       .  S
N2156      H2160   1.045       .  S
N2156      H2161   1.045   1_655  S
N2159      H2162   1.045       .  S
N2159      H2163   1.040       .  S
C2164      C2165   1.391       .  A
C2164      C2169   1.387       .  A
C2164      H2171   1.081       .  S
C2165      C2166   1.402       .  A
C2166      C2167   1.394       .  A
C2166      N2173   1.425       .  S
C2167      C2168   1.393       .  A
C2167      H2172   1.083       .  S
C2168      C2169   1.425       .  A
C2169      N2170   1.436       .  S
N2170      H2174   1.042       .  S
N2170      H2175   1.042       .  S
N2173      H2176   1.043       .  S
N2173      H2177   1.045       .  S
C2178      C2179   1.392       .  A
C2178      C2183   1.404       .  A
C2178      H2185   1.056       .  S
C2179      C2180   1.421       .  A
C2180      C2181   1.405       .  A
C2180      N2187   1.419       .  S
C2181      C2182   1.387       .  A
C2181      H2186   1.084       .  S
C2182      C2183   1.405       .  A
C2183      N2184   1.433       .  S
N2184      H2188   1.043       .  S
N2184      H2189   1.043       .  S
N2187      H2190   1.042       .  S
N2187      H2191   1.043       .  S
C2192      C2193   1.418       .  A
C2192      C2197   1.403       .  A
C2192      H2199   1.082       .  S
C2193      C2194   1.422       .  A
C2194      C2195   1.395       .  A
C2194      N2201   1.436       .  S
C2195      C2196   1.395       .  A
C2195      H2200   1.074       .  S
C2196      C2197   1.378       .  A
C2197      N2198   1.423       .  S
N2198      H2202   1.046       .  S
N2198      H2203   1.041       .  S
N2201      H2204   1.046       .  S
N2201      H2205   1.043       .  S
O2206      C2214   1.262       .  A
O2206     Co2226   2.007       .  S
O2207      C2215   1.268       .  A
O2207     Co2227   1.897       .  S
O2208      C2216   1.285       .  A
O2208     Co2228   2.084       .  S
O2209      C2217   1.306       .  A
O2209     Co2229   2.119       .  S
O2210      C2216   1.274       .  A
O2210     Co2227   2.005       .  S
O2211      C2217   1.268       .  A
O2211     Co2226   1.924       .  S
O2212      C2215   1.326       .  A
O2213      C2214   1.273       .  A
C2214      C2330   1.513       .  S
C2215      C2253   1.546       .  S
C2216      C2351   1.537       .  S
C2217      C2236   1.504       .  S
O2218      C2231   1.283       .  A
O2218     Co2226   2.032       .  S
O2219      C2232   1.262       .  A
O2219     Co2227   1.977       .  S
O2220      C2233   1.291       .  A
O2221      C2234   1.255       .  A
O2222      C2234   1.243       .  A
O2222     Co2227   1.990       .  S
O2223      C2233   1.306       .  A
O2223     Co2226   2.078       .  S
O2224      C2231   1.278       .  A
O2224     Co2229   2.080       .  S
O2225      C2232   1.282       .  A
O2225     Co2228   2.059       .  S
Co2226     O2230   1.979       .  S
Co2229     O2230   2.299       .  S
C2231      C2334   1.553       .  S
C2232      C2260   1.510       .  S
C2233      C2243   1.549       .  S
C2234      C2341   1.509       .  S
N2235      C2239   1.352       .  A
N2235      C2236   1.375       .  A
N2235      C2634   1.425       .  S
C2236      C2237   1.373       .  A
C2237      C2238   1.373       .  A
C2237      H2240   1.072       .  S
C2238      C2239   1.365       .  A
C2238      H2241   1.070       .  S
C2239      C2305   1.477       .  S
N2242      C2246   1.383       .  A
N2242      C2243   1.384       .  A
N2242      C2623   1.434       .  S
C2243      C2244   1.383       .  A
C2244      C2245   1.377       .  A
C2244      H2247   1.080       .  S
C2245      C2246   1.379       .  A
C2245      H2248   1.082       .  S
C2246      C2307   1.525       .  S
N2249      C2253   1.372       .  A
N2249      C2250   1.392       .  A
N2249      C2609   1.416       .  S
C2250      C2322   1.558       .  S
C2250      C2251   1.388       .  A
C2251      C2252   1.372       .  A
C2251      H2254   1.079       .  S
C2252      C2253   1.382       .  A
C2252      H2255   1.082       .  S
N2256      C2260   1.369       .  A
N2256      C2257   1.367       .  A
N2256      C2592   1.405       .  S
C2257      C2325   1.520       .  S
C2257      C2258   1.376       .  A
C2258      C2259   1.370       .  A
C2258      H2261   1.080       .  S
C2259      C2260   1.372       .  A
C2259      H2262   1.082       .  S
N2263      C2268   1.347       .  A
N2263      H2295   1.025       .  S
N2264      C2271   1.346       .  A
N2265      C2270   1.348       .  A
N2265      H2296   1.032   1_556  S
N2266      C2273   1.341       .  A
C2267      C2275   1.375       .  A
C2267      C2283   1.402       .  A
C2268      C2284   1.398       .  A
C2268      C2276   1.383       .  A
C2269      C2277   1.378   1_655  A
C2269      C2286   1.398       .  A
C2270      C2285   1.407       .  A
C2270      C2278   1.379       .  A
C2271      C2283   1.398       .  A
C2271      C2279   1.377       .  A
C2272      C2286   1.410       .  A
C2272      C2280   1.389       .  A
C2273      C2281   1.394       .  A
C2273      C2284   1.409       .  A
C2274      C2282   1.376       .  A
C2274      C2285   1.389   1_554  A
C2275      H2287   1.066       .  S
C2276      H2288   1.082       .  S
C2277      H2289   1.079   1_455  S
C2278      H2290   1.068       .  S
C2279      H2291   1.074       .  S
C2280      H2292   1.076       .  S
C2281      H2293   1.078       .  S
C2282      H2294   1.081       .  S
C2283      C2620   1.518       .  S
C2284      C2637   1.476       .  S
C2285      C2606   1.466       .  S
C2286      C2595   1.484       .  S
O2297      C2305   1.240       .  A
O2297     Co2317   1.945       .  S
O2298      C2306   1.260       .  A
O2298     Co2318   2.027       .  S
O2299      C2307   1.313       .  A
O2299     Co2319   2.175       .  S
O2300      C2308   1.325       .  A
O2301      C2307   1.259       .  A
O2301     Co2318   1.904       .  S
O2302      C2308   1.239       .  A
O2302     Co2317   1.842       .  S
O2303      C2306   1.278       .  A
O2303     Co2320   2.073   1_655  S
O2304      C2305   1.259       .  A
C2306      C2413   1.536       .  S
C2308      C2389   1.540       .  S
O2309      C2322   1.287       .  A
O2309     Co2317   2.037       .  S
O2310      C2323   1.301       .  A
O2310     Co2318   2.130       .  S
O2311      C2324   1.282       .  A
O2312      C2325   1.302       .  A
O2312     Co2320   2.107   1_655  S
O2313      C2325   1.285       .  A
O2313     Co2318   1.972       .  S
O2314      C2324   1.283       .  A
O2314     Co2317   2.012       .  S
O2315      C2322   1.282       .  A
O2316      C2323   1.268       .  A
O2316     Co2319   2.003       .  S
Co2318     O2321   1.970   1_655  S
Co2319     O2321   2.219   1_655  S
Co2320     O2321   2.233       .  S
C2323      C2399   1.553       .  S
C2324      C2406   1.506       .  S
N2326      C2330   1.368       .  A
N2326      C2327   1.352       .  A
N2326      C2581   1.419       .  S
C2327      C2458   1.492       .  S
C2327      C2328   1.366       .  A
C2328      C2329   1.387       .  A
C2328      H2331   1.074       .  S
C2329      C2330   1.379       .  A
C2329      H2332   1.078       .  S
N2333      C2337   1.387       .  A
N2333      C2334   1.391       .  A
N2333      C2564   1.444       .  S
C2334      C2335   1.376       .  A
C2335      C2336   1.380       .  A
C2335      H2338   1.080       .  S
C2336      C2337   1.378       .  A
C2336      H2339   1.073       .  S
C2337      C2460   1.541       .  S
N2340      C2344   1.367       .  A
N2340      C2341   1.365       .  A
N2340      C2553   1.420       .  S
C2341      C2342   1.360       .  A
C2342      C2343   1.389       .  A
C2342      H2345   1.079       .  S
C2343      C2344   1.373       .  A
C2343      H2346   1.080       .  S
C2344      C2478   1.521       .  S
N2347      C2351   1.375       .  A
N2347      C2348   1.374       .  A
N2347      C2539   1.419       .  S
C2348      C2475   1.531       .  S
C2348      C2349   1.380       .  A
C2349      C2350   1.385       .  A
C2349      H2352   1.082       .  S
C2350      C2351   1.388       .  A
C2350      H2353   1.080       .  S
N2354      C3241   1.353       .  A
N2354      C2358   1.359       .  A
N2354      H2386   1.038       .  S
N2355      C2362   1.345   1_554  A
N2356      C3243   1.340       .  A
N2356      C2360   1.336       .  A
N2356      H2387   1.043       .  S
N2357      C2364   1.344   1_554  A
C2358      C2366   1.379       .  A
C2358      C2374   1.408       .  A
C2359      N3236   1.353       .  A
C2359      C2375   1.403       .  A
C2359      C2367   1.379       .  A
C2360      C2368   1.380       .  A
C2360      C2377   1.384       .  A
C2361      N3238   1.340       .  A
C2361      C2376   1.392       .  A
C2361      C2369   1.386       .  A
C2362      C2374   1.402       .  A
C2362      C2370   1.386       .  A
C2363      C2377   1.401       .  A
C2363      C2371   1.378       .  A
C2364      C2372   1.383   1_556  A
C2364      C2375   1.398       .  A
C2365      C2373   1.387       .  A
C2365      C2376   1.414       .  A
C2366      C3249   1.346       .  A
C2366      H2378   1.081       .  S
C2367      C3248   1.346       .  A
C2367      H2379   1.081       .  S
C2368      C3251   1.383       .  A
C2368      H2380   1.081       .  S
C2369      C3250   1.383   1_545  A
C2369      H2381   1.082       .  S
C2370      H2382   1.081       .  S
C2371      H2383   1.077       .  S
C2372      H2384   1.082   1_554  S
C2373      H2385   1.077       .  S
C2374      C2536   1.482       .  S
C2375      C2550   1.492       .  S
C2376      C2567   1.514       .  S
C2377      C2578   1.473       .  S
N2388      C2392   1.379       .  A
N2388      C2389   1.370       .  A
N2388      C2525   1.412       .  S
C2389      C2390   1.385       .  A
C2390      C2391   1.374       .  A
C2390      H2393   1.083       .  S
C2391      C2392   1.383       .  A
C2391      H2394   1.080       .  S
C2392      C2477   1.528       .  S
N2395      C2399   1.380       .  A
N2395      C2396   1.375       .  A
N2395      C2511   1.414       .  S
C2396      C2459   1.542       .  S
C2396      C2397   1.381       .  A
C2397      C2398   1.391       .  A
C2397      H2400   1.081       .  S
C2398      C2399   1.387       .  A
C2398      H2401   1.082       .  S
N2402      C2406   1.363       .  A
N2402      C2403   1.374       .  A
N2402      C2497   1.418       .  S
C2403      C2476   1.527       .  S
C2403      C2404   1.386       .  A
C2404      C2405   1.370       .  A
C2404      H2407   1.076       .  S
C2405      C2406   1.377       .  A
C2405      H2408   1.082       .  S
N2409      C2413   1.387       .  A
N2409      C2410   1.362       .  A
N2409      C2480   1.439       .  S
C2410      C2461   1.499       .  S
C2410      C2411   1.355       .  A
C2411      C2412   1.385       .  A
C2411      H2414   1.076       .  S
C2412      C2413   1.384       .  A
C2412      H2415   1.082       .  S
N2416      C2420   1.346       .  A
N2416      H2448   1.039       .  S
N2417      C2424   1.350       .  A
N2417      C3307   1.352   1_545  A
N2418      C2422   1.347       .  A
N2418      H2449   1.037       .  S
N2419      C2426   1.338       .  A
N2419      C3309   1.340   1_545  A
C2420      C2428   1.387       .  A
C2420      C2436   1.407       .  A
C2421      C2437   1.399       .  A
C2421      C2429   1.387       .  A
C2422      C2430   1.375       .  A
C2422      C2439   1.394       .  A
C2423      C2438   1.422       .  A
C2423      C2431   1.386       .  A
C2424      C2436   1.422       .  A
C2424      C2432   1.387       .  A
C2425      N3299   1.352       .  A
C2425      C2439   1.398       .  A
C2425      C2433   1.376       .  A
C2426      C2434   1.387       .  A
C2426      C2437   1.407       .  A
C2427      N3301   1.340       .  A
C2427      C2435   1.377       .  A
C2427      C2438   1.397       .  A
C2428      H2440   1.082       .  S
C2429      H2441   1.083       .  S
C2430      H2442   1.083       .  S
C2431      H2443   1.065       .  S
C2432      C3315   1.337       .  A
C2432      H2444   1.068       .  S
C2433      C3314   1.337       .  A
C2433      H2445   1.081       .  S
C2434      C3317   1.380       .  A
C2434      H2446   1.075       .  S
C2435      C3316   1.380       .  A
C2435      H2447   1.082       .  S
C2436      C2494   1.476       .  S
C2437      C2508   1.509       .  S
C2438      C2483   1.496       .  S
C2439      C2522   1.471       .  S
O2450      C2458   1.257       .  A
O2450     Co2470   1.893       .  S
O2451      C2459   1.260       .  A
O2451     Co2471   2.008       .  S
O2452      C2460   1.309       .  A
O2452     Co2472   2.140   1_545  S
O2453      C2461   1.266       .  A
O2453     Co2473   2.030       .  S
O2454      C2460   1.287       .  A
O2454     Co2471   1.941       .  S
O2455      C2461   1.245       .  A
O2455     Co2470   1.978       .  S
O2456      C2459   1.268       .  A
O2456     Co3355   2.081   1_545  S
O2457      C2458   1.302       .  A
O2457     Co3354   2.125       .  S
O2462      C2475   1.294       .  A
O2462     Co2470   2.065       .  S
O2463      C2476   1.252       .  A
O2463     Co2471   1.977       .  S
O2464      C2477   1.288       .  A
O2464     Co3354   2.117       .  S
O2465      C2478   1.268       .  A
O2465     Co3355   1.982   1_545  S
O2466      C2478   1.304       .  A
O2466     Co2471   2.109       .  S
O2467      C2477   1.271       .  A
O2467     Co2470   1.981       .  S
O2468      C2475   1.280       .  A
O2468     Co2473   2.058       .  S
O2469      C2476   1.275       .  A
O2469     Co2472   2.074   1_545  S
Co2470     O2474   1.960       .  S
Co2471     O3356   1.973   1_545  S
Co2472     O3339   2.125       .  S
Co2472     O3346   2.117       .  S
Co2472     O3356   2.277       .  S
Co2473     O3338   2.081       .  S
Co2473     O3347   1.982       .  S
Co2473     O2474   2.147       .  S
O2474     Co3353   1.973       .  S
O2474     Co3354   2.277       .  S
C2479      C2480   1.402       .  A
C2479      C2484   1.411       .  A
C2479      H2486   1.071       .  S
C2480      C2481   1.420       .  A
C2481      C2482   1.399       .  A
C2481      N2488   1.432       .  S
C2482      C2483   1.396       .  A
C2482      H2487   1.070       .  S
C2483      C2484   1.400       .  A
C2484      N2485   1.421       .  S
N2485      H2489   1.044       .  S
N2485      H2490   1.044       .  S
N2488      H2491   1.045       .  S
N2488      H2492   1.044       .  S
C2493      C2494   1.406       .  A
C2493      C2498   1.395       .  A
C2493      H2500   1.078       .  S
C2494      C2495   1.392       .  A
C2495      C2496   1.391       .  A
C2495      N2502   1.427       .  S
C2496      C2497   1.415       .  A
C2496      H2501   1.079       .  S
C2497      C2498   1.404       .  A
C2498      N2499   1.432       .  S
N2499      H2503   1.045       .  S
N2499      H2504   1.043       .  S
N2502      H2505   1.045       .  S
N2502      H2506   1.044       .  S
C2507      C2508   1.404       .  A
C2507      C2512   1.404       .  A
C2507      H2514   1.074       .  S
C2508      C2509   1.420       .  A
C2509      C2510   1.392       .  A
C2509      N2516   1.422       .  S
C2510      C2511   1.384       .  A
C2510      H2515   1.084       .  S
C2511      C2512   1.392       .  A
C2512      N2513   1.439       .  S
N2513      H2517   1.040       .  S
N2513      H2518   1.044       .  S
N2516      H2519   1.036       .  S
N2516      H2520   1.038       .  S
C2521      C2522   1.382       .  A
C2521      C2526   1.375       .  A
C2521      H2528   1.071       .  S
C2522      C2523   1.417       .  A
C2523      C2524   1.397       .  A
C2523      N2530   1.436       .  S
C2524      C2525   1.396       .  A
C2524      H2529   1.079       .  S
C2525      C2526   1.394       .  A
C2526      N2527   1.428       .  S
N2527      H2531   1.038       .  S
N2527      H2532   1.042       .  S
N2530      H2533   1.044       .  S
N2530      H2534   1.045       .  S
C2535      C2536   1.410       .  A
C2535      C2540   1.390       .  A
C2535      H2542   1.082       .  S
C2536      C2537   1.400       .  A
C2537      C2538   1.382       .  A
C2537      N2544   1.427       .  S
C2538      C2539   1.400       .  A
C2538      H2543   1.081       .  S
C2539      C2540   1.397       .  A
C2540      N2541   1.430       .  S
N2541      H2545   1.046       .  S
N2541      H2546   1.046       .  S
N2544      H2547   1.042       .  S
N2544      H2548   1.045       .  S
C2549      C2550   1.403       .  A
C2549      C2554   1.396       .  A
C2549      H2556   1.073       .  S
C2550      C2551   1.431       .  A
C2551      C2552   1.394       .  A
C2551      N2558   1.441       .  S
C2552      C2553   1.395       .  A
C2552      H2557   1.084       .  S
C2553      C2554   1.383       .  A
C2554      N2555   1.419       .  S
N2555      H2559   1.046       .  S
N2555      H2560   1.044       .  S
N2558      H2561   1.033   1_556  S
N2558      H2562   1.044       .  S
C2563      C2564   1.398       .  A
C2563      C2568   1.404       .  A
C2563      H2570   1.067       .  S
C2564      C2565   1.399       .  A
C2565      C2566   1.396       .  A
C2565      N2572   1.434       .  S
C2566      C2567   1.410       .  A
C2566      H2571   1.070       .  S
C2567      C2568   1.419       .  A
C2568      N2569   1.429       .  S
N2569      H2573   1.043       .  S
N2569      H2574   1.045       .  S
N2572      H2575   1.044       .  S
N2572      H2576   1.044       .  S
C2577      C2578   1.405       .  A
C2577      C2582   1.397       .  A
C2577      H2584   1.085       .  S
C2578      C2579   1.399       .  A
C2579      C2580   1.400       .  A
C2579      N2586   1.422       .  S
C2580      C2581   1.393       .  A
C2580      H2585   1.082       .  S
C2581      C2582   1.411       .  A
C2582      N2583   1.432       .  S
N2583      H2587   1.046       .  S
N2583      H2588   1.046       .  S
N2586      H2589   1.042       .  S
N2586      H2590   1.044       .  S
C2591      C2592   1.380       .  A
C2591      C2596   1.387       .  A
C2591      H2598   1.084       .  S
C2592      C2593   1.394       .  A
C2593      C2594   1.382       .  A
C2593      N2600   1.428       .  S
C2594      C2595   1.389       .  A
C2594      H2599   1.073       .  S
C2595      C2596   1.425       .  A
C2596      N2597   1.429       .  S
N2597      H2601   1.045       .  S
N2597      H2602   1.045   1_655  S
N2600      H2603   1.045       .  S
N2600      H2604   1.040       .  S
C2605      C2606   1.391       .  A
C2605      C2610   1.388       .  A
C2605      H2612   1.081       .  S
C2606      C2607   1.402       .  A
C2607      C2608   1.394       .  A
C2607      N2614   1.425       .  S
C2608      C2609   1.393       .  A
C2608      H2613   1.083       .  S
C2609      C2610   1.426       .  A
C2610      N2611   1.436       .  S
N2611      H2615   1.042       .  S
N2611      H2616   1.042       .  S
N2614      H2617   1.043       .  S
N2614      H2618   1.045   1_556  S
C2619      C2620   1.391       .  A
C2619      C2624   1.404       .  A
C2619      H2626   1.055       .  S
C2620      C2621   1.421       .  A
C2621      C2622   1.405       .  A
C2621      N2628   1.419       .  S
C2622      C2623   1.387       .  A
C2622      H2627   1.084       .  S
C2623      C2624   1.405       .  A
C2624      N2625   1.433       .  S
N2625      H2629   1.043       .  S
N2625      H2630   1.043       .  S
N2628      H2631   1.042       .  S
N2628      H2632   1.043       .  S
C2633      C2634   1.418       .  A
C2633      C2638   1.404       .  A
C2633      H2640   1.082       .  S
C2634      C2635   1.422       .  A
C2635      C2636   1.394       .  A
C2635      N2642   1.436       .  S
C2636      C2637   1.395       .  A
C2636      H2641   1.074       .  S
C2637      C2638   1.378       .  A
C2638      N2639   1.423       .  S
N2639      H2643   1.046       .  S
N2639      H2644   1.041       .  S
N2642      H2645   1.046       .  S
N2642      H2646   1.043       .  S
O2647      C2655   1.262       .  A
O2647     Co2667   2.007       .  S
O2648      C2656   1.268       .  A
O2648     Co2668   1.897       .  S
O2649      C2657   1.285       .  A
O2649     Co2669   2.083       .  S
O2650      C2658   1.306       .  A
O2650     Co2670   2.118   1_554  S
O2651      C2657   1.274       .  A
O2651     Co2668   2.005       .  S
O2652      C2658   1.268       .  A
O2652     Co2667   1.924       .  S
O2653      C2656   1.326       .  A
O2653     Co3111   2.186       .  S
O2654      C2655   1.273       .  A
O2654     Co3110   2.037   1_554  S
C2655      C2771   1.514       .  S
C2656      C2694   1.546       .  S
C2657      C2792   1.537       .  S
C2658      C2677   1.504       .  S
O2659      C2672   1.282       .  A
O2659     Co2667   2.032       .  S
O2660      C2673   1.262       .  A
O2660     Co2668   1.977       .  S
O2661      C2674   1.291       .  A
O2661     Co3110   2.077   1_554  S
O2662      C2675   1.255       .  A
O2662     Co3111   2.033       .  S
O2663      C2675   1.243       .  A
O2663     Co2668   1.990       .  S
O2664      C2674   1.306       .  A
O2664     Co2667   2.078       .  S
O2665      C2672   1.278       .  A
O2665     Co2670   2.080   1_554  S
O2666      C2673   1.282       .  A
O2666     Co2669   2.059       .  S
Co2667     O2671   1.979   1_554  S
Co2668     O3112   1.955       .  S
Co2669     O3095   2.037       .  S
Co2669     O3102   2.077       .  S
Co2669     O3112   2.147       .  S
Co2670     O3094   2.187       .  S
Co2670     O3103   2.033       .  S
Co2670     O2671   2.299       .  S
O2671     Co3109   1.955       .  S
O2671     Co3110   2.147       .  S
C2672      C2775   1.553       .  S
C2673      C2701   1.511       .  S
C2674      C2684   1.549       .  S
C2675      C2782   1.509       .  S
N2676      C2680   1.352       .  A
N2676      C2677   1.375       .  A
N2676      C3075   1.425       .  S
C2677      C2678   1.373       .  A
C2678      C2679   1.373       .  A
C2678      H2681   1.073       .  S
C2679      C2680   1.365       .  A
C2679      H2682   1.070       .  S
C2680      C2746   1.477       .  S
N2683      C2687   1.383       .  A
N2683      C2684   1.384       .  A
N2683      C3064   1.434       .  S
C2684      C2685   1.383       .  A
C2685      C2686   1.377       .  A
C2685      H2688   1.080       .  S
C2686      C2687   1.379       .  A
C2686      H2689   1.082       .  S
C2687      C2748   1.525       .  S
N2690      C2694   1.372       .  A
N2690      C2691   1.393       .  A
N2690      C3050   1.416       .  S
C2691      C2763   1.558       .  S
C2691      C2692   1.388       .  A
C2692      C2693   1.372       .  A
C2692      H2695   1.079       .  S
C2693      C2694   1.382       .  A
C2693      H2696   1.082       .  S
N2697      C2701   1.369       .  A
N2697      C2698   1.367       .  A
N2697      C3033   1.405       .  S
C2698      C2766   1.520       .  S
C2698      C2699   1.376       .  A
C2699      C2700   1.370       .  A
C2699      H2702   1.080       .  S
C2700      C2701   1.372       .  A
C2700      H2703   1.082       .  S
N2704      C2709   1.347       .  A
N2704      H2736   1.025       .  S
N2705      C2712   1.347       .  A
N2705      C3154   1.345   1_554  A
N2706      C2711   1.348       .  A
N2706      H2737   1.032       .  S
N2707      C2714   1.341       .  A
N2707      C3156   1.344       .  A
C2708      C2716   1.375       .  A
C2708      C2724   1.402       .  A
C2709      C2725   1.398       .  A
C2709      C2717   1.383       .  A
C2710      C2718   1.378   1_655  A
C2710      C2727   1.397       .  A
C2711      C2726   1.407       .  A
C2711      C2719   1.379       .  A
C2712      C2724   1.399       .  A
C2712      C2720   1.377       .  A
C2713      N3146   1.345       .  A
C2713      C2727   1.410       .  A
C2713      C2721   1.389       .  A
C2714      C2722   1.394       .  A
C2714      C2725   1.409       .  A
C2715      N3148   1.344       .  A
C2715      C2723   1.376       .  A
C2715      C2726   1.389       .  A
C2716      H2728   1.066       .  S
C2717      H2729   1.082       .  S
C2718      H2730   1.079   1_455  S
C2719      H2731   1.068       .  S
C2720      C3162   1.362   1_554  A
C2720      H2732   1.074       .  S
C2721      C3161   1.362       .  A
C2721      H2733   1.076       .  S
C2722      C3164   1.368       .  A
C2722      H2734   1.078       .  S
C2723      C3163   1.368       .  A
C2723      H2735   1.081       .  S
C2724      C3061   1.518       .  S
C2725      C3078   1.476       .  S
C2726      C3047   1.466       .  S
C2727      C3036   1.484       .  S
O2738      C2746   1.240       .  A
O2738     Co2758   1.946       .  S
O2739      C2747   1.260       .  A
O2739     Co2759   2.027       .  S
O2740      C2748   1.313       .  A
O2740     Co2760   2.175       .  S
O2741      C2749   1.325       .  A
O2742      C2748   1.259       .  A
O2742     Co2759   1.904       .  S
O2743      C2749   1.239       .  A
O2743     Co2758   1.842       .  S
O2744      C2747   1.278       .  A
O2744     Co2761   2.073   1_655  S
O2745      C2746   1.259       .  A
C2747      C2854   1.537       .  S
C2749      C2830   1.539       .  S
O2750      C2763   1.287       .  A
O2750     Co2758   2.038       .  S
O2751      C2764   1.301       .  A
O2751     Co2759   2.130       .  S
O2752      C2765   1.282       .  A
O2753      C2766   1.302       .  A
O2753     Co2761   2.106   1_655  S
O2754      C2766   1.285       .  A
O2754     Co2759   1.972       .  S
O2755      C2765   1.283       .  A
O2755     Co2758   2.012       .  S
O2756      C2763   1.282       .  A
O2757      C2764   1.268       .  A
O2757     Co2760   2.003       .  S
Co2759     O2762   1.970   1_655  S
Co2760     O2762   2.219   1_655  S
Co2761     O2762   2.233       .  S
C2764      C2840   1.553       .  S
C2765      C2847   1.507       .  S
N2767      C2771   1.369       .  A
N2767      C2768   1.352       .  A
N2767      C3022   1.419       .  S
C2768      C2899   1.492       .  S
C2768      C2769   1.366       .  A
C2769      C2770   1.387       .  A
C2769      H2772   1.074       .  S
C2770      C2771   1.379       .  A
C2770      H2773   1.078       .  S
N2774      C2778   1.387       .  A
N2774      C2775   1.391       .  A
N2774      C3005   1.444       .  S
C2775      C2776   1.376       .  A
C2776      C2777   1.381       .  A
C2776      H2779   1.080       .  S
C2777      C2778   1.378       .  A
C2777      H2780   1.073       .  S
C2778      C2901   1.542       .  S
N2781      C2785   1.367       .  A
N2781      C2782   1.365       .  A
N2781      C2994   1.421       .  S
C2782      C2783   1.360       .  A
C2783      C2784   1.389       .  A
C2783      H2786   1.079       .  S
C2784      C2785   1.374       .  A
C2784      H2787   1.080       .  S
C2785      C2919   1.521       .  S
N2788      C2792   1.375       .  A
N2788      C2789   1.373       .  A
N2788      C2980   1.419       .  S
C2789      C2916   1.530       .  S
C2789      C2790   1.380       .  A
C2790      C2791   1.384       .  A
C2790      H2793   1.082       .  S
C2791      C2792   1.388       .  A
C2791      H2794   1.080       .  S
N2795      C2799   1.360   1_545  A
N2795      H2827   1.038       .  S
N2796      C2803   1.345       .  A
N2796      C3245   1.346       .  A
N2797      C2801   1.336   1_545  A
N2797      H2828   1.043       .  S
N2798      C2805   1.344       .  A
N2798      C3247   1.353       .  A
C2799      C2807   1.379   1_565  A
C2799      C2815   1.408       .  A
C2800      C2816   1.403       .  A
C2800      C2808   1.379       .  A
C2801      C2809   1.380       .  A
C2801      C2818   1.384       .  A
C2802      C2817   1.392       .  A
C2802      C2810   1.386       .  A
C2803      C2815   1.402       .  A
C2803      C2811   1.386       .  A
C2804      N3237   1.346       .  A
C2804      C2818   1.401       .  A
C2804      C2812   1.379       .  A
C2805      C2813   1.383       .  A
C2805      C2816   1.399       .  A
C2806      N3239   1.353       .  A
C2806      C2814   1.387       .  A
C2806      C2817   1.414       .  A
C2807      H2819   1.081   1_545  S
C2808      H2820   1.081       .  S
C2809      H2821   1.081       .  S
C2810      H2822   1.082       .  S
C2811      C3253   1.342       .  A
C2811      H2823   1.081       .  S
C2812      C3252   1.342   1_554  A
C2812      H2824   1.077       .  S
C2813      C3255   1.375       .  A
C2813      H2825   1.082       .  S
C2814      C3254   1.375       .  A
C2814      H2826   1.077       .  S
C2815      C2977   1.483       .  S
C2816      C2991   1.492       .  S
C2817      C3008   1.514       .  S
C2818      C3019   1.473       .  S
N2829      C2833   1.379       .  A
N2829      C2830   1.370       .  A
N2829      C2966   1.412       .  S
C2830      C2831   1.385       .  A
C2831      C2832   1.374       .  A
C2831      H2834   1.083       .  S
C2832      C2833   1.383       .  A
C2832      H2835   1.080       .  S
C2833      C2918   1.528       .  S
N2836      C2840   1.380       .  A
N2836      C2837   1.375       .  A
N2836      C2952   1.414       .  S
C2837      C2900   1.542       .  S
C2837      C2838   1.381       .  A
C2838      C2839   1.391       .  A
C2838      H2841   1.081       .  S
C2839      C2840   1.387       .  A
C2839      H2842   1.082       .  S
N2843      C2847   1.363       .  A
N2843      C2844   1.374       .  A
N2843      C2938   1.418       .  S
C2844      C2917   1.527       .  S
C2844      C2845   1.386       .  A
C2845      C2846   1.370       .  A
C2845      H2848   1.076       .  S
C2846      C2847   1.377       .  A
C2846      H2849   1.082       .  S
N2850      C2854   1.387       .  A
N2850      C2851   1.362       .  A
N2850      C2921   1.439       .  S
C2851      C2902   1.499       .  S
C2851      C2852   1.356       .  A
C2852      C2853   1.385       .  A
C2852      H2855   1.076       .  S
C2853      C2854   1.384       .  A
C2853      H2856   1.082       .  S
N2857      C2861   1.346       .  A
N2857      H2889   1.039       .  S
N2858      C2865   1.350       .  A
N2859      C2863   1.347       .  A
N2859      H2890   1.037       .  S
N2860      C2867   1.338       .  A
C2861      C2869   1.387       .  A
C2861      C2877   1.407       .  A
C2862      C2878   1.399       .  A
C2862      C2870   1.387       .  A
C2863      C2871   1.375       .  A
C2863      C2880   1.394       .  A
C2864      C2879   1.423       .  A
C2864      C2872   1.386       .  A
C2865      C2877   1.422       .  A
C2865      C2873   1.387       .  A
C2866      C2880   1.399       .  A
C2866      C2874   1.376   1_565  A
C2867      C2875   1.387       .  A
C2867      C2878   1.407       .  A
C2868      C2876   1.377   1_565  A
C2868      C2879   1.397       .  A
C2869      H2881   1.082       .  S
C2870      H2882   1.083       .  S
C2871      H2883   1.083       .  S
C2872      H2884   1.065       .  S
C2873      H2885   1.068       .  S
C2874      H2886   1.081   1_545  S
C2875      H2887   1.076       .  S
C2876      H2888   1.082   1_545  S
C2877      C2935   1.476       .  S
C2878      C2949   1.509       .  S
C2879      C2924   1.496       .  S
C2880      C2963   1.471       .  S
O2891      C2899   1.257       .  A
O2891     Co2911   1.893       .  S
O2892      C2900   1.260       .  A
O2892     Co2912   2.008       .  S
O2893      C2901   1.309       .  A
O2893     Co2913   2.140       .  S
O2894      C2902   1.266       .  A
O2894     Co2914   2.030       .  S
O2895      C2901   1.287       .  A
O2895     Co2912   1.941       .  S
O2896      C2902   1.246       .  A
O2896     Co2911   1.978       .  S
O2897      C2900   1.268       .  A
O2898      C2899   1.302       .  A
O2903      C2916   1.294       .  A
O2903     Co2911   2.064       .  S
O2904      C2917   1.252       .  A
O2904     Co2912   1.977       .  S
O2905      C2918   1.288       .  A
O2906      C2919   1.268       .  A
O2907      C2919   1.304       .  A
O2907     Co2912   2.109       .  S
O2908      C2918   1.271       .  A
O2908     Co2911   1.981       .  S
O2909      C2916   1.280       .  A
O2909     Co2914   2.057       .  S
O2910      C2917   1.275       .  A
O2910     Co2913   2.074       .  S
Co2911     O2915   1.960       .  S
Co2914     O2915   2.147       .  S
C2920      C2921   1.402       .  A
C2920      C2925   1.411       .  A
C2920      H2927   1.071       .  S
C2921      C2922   1.420       .  A
C2922      C2923   1.399       .  A
C2922      N2929   1.432       .  S
C2923      C2924   1.396       .  A
C2923      H2928   1.070       .  S
C2924      C2925   1.400       .  A
C2925      N2926   1.421       .  S
N2926      H2930   1.044       .  S
N2926      H2931   1.044       .  S
N2929      H2932   1.045       .  S
N2929      H2933   1.044       .  S
C2934      C2935   1.406       .  A
C2934      C2939   1.395       .  A
C2934      H2941   1.078       .  S
C2935      C2936   1.392       .  A
C2936      C2937   1.391       .  A
C2936      N2943   1.427       .  S
C2937      C2938   1.415       .  A
C2937      H2942   1.079       .  S
C2938      C2939   1.404       .  A
C2939      N2940   1.432       .  S
N2940      H2944   1.045       .  S
N2940      H2945   1.043       .  S
N2943      H2946   1.045       .  S
N2943      H2947   1.044       .  S
C2948      C2949   1.403       .  A
C2948      C2953   1.404       .  A
C2948      H2955   1.074       .  S
C2949      C2950   1.420       .  A
C2950      C2951   1.392       .  A
C2950      N2957   1.422       .  S
C2951      C2952   1.384       .  A
C2951      H2956   1.084       .  S
C2952      C2953   1.392       .  A
C2953      N2954   1.439       .  S
N2954      H2958   1.040       .  S
N2954      H2959   1.044       .  S
N2957      H2960   1.036       .  S
N2957      H2961   1.038       .  S
C2962      C2963   1.382       .  A
C2962      C2967   1.375       .  A
C2962      H2969   1.071       .  S
C2963      C2964   1.416       .  A
C2964      C2965   1.397       .  A
C2964      N2971   1.436       .  S
C2965      C2966   1.397       .  A
C2965      H2970   1.079       .  S
C2966      C2967   1.394       .  A
C2967      N2968   1.428       .  S
N2968      H2972   1.037       .  S
N2968      H2973   1.042       .  S
N2971      H2974   1.044       .  S
N2971      H2975   1.045       .  S
C2976      C2977   1.410       .  A
C2976      C2981   1.390       .  A
C2976      H2983   1.082       .  S
C2977      C2978   1.400       .  A
C2978      C2979   1.383       .  A
C2978      N2985   1.427       .  S
C2979      C2980   1.400       .  A
C2979      H2984   1.081       .  S
C2980      C2981   1.398       .  A
C2981      N2982   1.430       .  S
N2982      H2986   1.046       .  S
N2982      H2987   1.046       .  S
N2985      H2988   1.042       .  S
N2985      H2989   1.045       .  S
C2990      C2991   1.403       .  A
C2990      C2995   1.396       .  A
C2990      H2997   1.073       .  S
C2991      C2992   1.431       .  A
C2992      C2993   1.394       .  A
C2992      N2999   1.441       .  S
C2993      C2994   1.395       .  A
C2993      H2998   1.084       .  S
C2994      C2995   1.383       .  A
C2995      N2996   1.419       .  S
N2996      H3000   1.046       .  S
N2996      H3001   1.044       .  S
N2999      H3002   1.033       .  S
N2999      H3003   1.044       .  S
C3004      C3005   1.397       .  A
C3004      C3009   1.403       .  A
C3004      H3011   1.066       .  S
C3005      C3006   1.399       .  A
C3006      C3007   1.396       .  A
C3006      N3013   1.434       .  S
C3007      C3008   1.410       .  A
C3007      H3012   1.070       .  S
C3008      C3009   1.419       .  A
C3009      N3010   1.429       .  S
N3010      H3014   1.043       .  S
N3010      H3015   1.045       .  S
N3013      H3016   1.044       .  S
N3013      H3017   1.044       .  S
C3018      C3019   1.405       .  A
C3018      C3023   1.397       .  A
C3018      H3025   1.085       .  S
C3019      C3020   1.398       .  A
C3020      C3021   1.400       .  A
C3020      N3027   1.422       .  S
C3021      C3022   1.393       .  A
C3021      H3026   1.082       .  S
C3022      C3023   1.412       .  A
C3023      N3024   1.432       .  S
N3024      H3028   1.046       .  S
N3024      H3029   1.046       .  S
N3027      H3030   1.043       .  S
N3027      H3031   1.043       .  S
C3032      C3033   1.380       .  A
C3032      C3037   1.388       .  A
C3032      H3039   1.084       .  S
C3033      C3034   1.394       .  A
C3034      C3035   1.381       .  A
C3034      N3041   1.428       .  S
C3035      C3036   1.389       .  A
C3035      H3040   1.073       .  S
C3036      C3037   1.425       .  A
C3037      N3038   1.429       .  S
N3038      H3042   1.045       .  S
N3038      H3043   1.045   1_655  S
N3041      H3044   1.045       .  S
N3041      H3045   1.040       .  S
C3046      C3047   1.391       .  A
C3046      C3051   1.387       .  A
C3046      H3053   1.081       .  S
C3047      C3048   1.402       .  A
C3048      C3049   1.394       .  A
C3048      N3055   1.425       .  S
C3049      C3050   1.393       .  A
C3049      H3054   1.083       .  S
C3050      C3051   1.425       .  A
C3051      N3052   1.436       .  S
N3052      H3056   1.042       .  S
N3052      H3057   1.042       .  S
N3055      H3058   1.043       .  S
N3055      H3059   1.045       .  S
C3060      C3061   1.392       .  A
C3060      C3065   1.404       .  A
C3060      H3067   1.056       .  S
C3061      C3062   1.421       .  A
C3062      C3063   1.405       .  A
C3062      N3069   1.419       .  S
C3063      C3064   1.387       .  A
C3063      H3068   1.084       .  S
C3064      C3065   1.405       .  A
C3065      N3066   1.433       .  S
N3066      H3070   1.043       .  S
N3066      H3071   1.043       .  S
N3069      H3072   1.042       .  S
N3069      H3073   1.043       .  S
C3074      C3075   1.418       .  A
C3074      C3079   1.403       .  A
C3074      H3081   1.082       .  S
C3075      C3076   1.422       .  A
C3076      C3077   1.395       .  A
C3076      N3083   1.436       .  S
C3077      C3078   1.395       .  A
C3077      H3082   1.074       .  S
C3078      C3079   1.378       .  A
C3079      N3080   1.423       .  S
N3080      H3084   1.046       .  S
N3080      H3085   1.041       .  S
N3083      H3086   1.046       .  S
N3083      H3087   1.043       .  S
O3088      C3096   1.262       .  A
O3088     Co3108   2.007       .  S
O3089      C3097   1.268       .  A
O3089     Co3109   1.897       .  S
O3090      C3098   1.285       .  A
O3090     Co3110   2.084       .  S
O3091      C3099   1.306       .  A
O3091     Co3111   2.119       .  S
O3092      C3098   1.274       .  A
O3092     Co3109   2.005       .  S
O3093      C3099   1.268       .  A
O3093     Co3108   1.924       .  S
O3094      C3097   1.326       .  A
O3095      C3096   1.273       .  A
C3096      C3212   1.514       .  S
C3097      C3135   1.546       .  S
C3098      C3233   1.537       .  S
C3099      C3118   1.504       .  S
O3100      C3113   1.283       .  A
O3100     Co3108   2.032       .  S
O3101      C3114   1.262       .  A
O3101     Co3109   1.977       .  S
O3102      C3115   1.291       .  A
O3103      C3116   1.255       .  A
O3104      C3116   1.243       .  A
O3104     Co3109   1.990       .  S
O3105      C3115   1.306       .  A
O3105     Co3108   2.078       .  S
O3106      C3113   1.278       .  A
O3106     Co3111   2.080       .  S
O3107      C3114   1.282       .  A
O3107     Co3110   2.059       .  S
Co3108     O3112   1.979       .  S
Co3111     O3112   2.299       .  S
C3113      C3216   1.553       .  S
C3114      C3142   1.510       .  S
C3115      C3125   1.549       .  S
C3116      C3223   1.509       .  S
N3117      C3121   1.352       .  A
N3117      C3118   1.375       .  A
N3117      C3516   1.425       .  S
C3118      C3119   1.373       .  A
C3119      C3120   1.373       .  A
C3119      H3122   1.072       .  S
C3120      C3121   1.365       .  A
C3120      H3123   1.070       .  S
C3121      C3187   1.477       .  S
N3124      C3128   1.383       .  A
N3124      C3125   1.384       .  A
N3124      C3505   1.434       .  S
C3125      C3126   1.383       .  A
C3126      C3127   1.377       .  A
C3126      H3129   1.080       .  S
C3127      C3128   1.379       .  A
C3127      H3130   1.082       .  S
C3128      C3189   1.525       .  S
N3131      C3135   1.372       .  A
N3131      C3132   1.392       .  A
N3131      C3491   1.416       .  S
C3132      C3204   1.558       .  S
C3132      C3133   1.388       .  A
C3133      C3134   1.372       .  A
C3133      H3136   1.079       .  S
C3134      C3135   1.382       .  A
C3134      H3137   1.082       .  S
N3138      C3142   1.369       .  A
N3138      C3139   1.367       .  A
N3138      C3474   1.405       .  S
C3139      C3207   1.520       .  S
C3139      C3140   1.376       .  A
C3140      C3141   1.370       .  A
C3140      H3143   1.080       .  S
C3141      C3142   1.372       .  A
C3141      H3144   1.082       .  S
N3145      C3150   1.347       .  A
N3145      H3177   1.025       .  S
N3146      C3153   1.346       .  A
N3147      C3152   1.348       .  A
N3147      H3178   1.032   1_556  S
N3148      C3155   1.341       .  A
C3149      C3157   1.375       .  A
C3149      C3165   1.402       .  A
C3150      C3166   1.398       .  A
C3150      C3158   1.383       .  A
C3151      C3159   1.378   1_655  A
C3151      C3168   1.398       .  A
C3152      C3167   1.407       .  A
C3152      C3160   1.379       .  A
C3153      C3165   1.398       .  A
C3153      C3161   1.377       .  A
C3154      C3168   1.410       .  A
C3154      C3162   1.389       .  A
C3155      C3163   1.394       .  A
C3155      C3166   1.409       .  A
C3156      C3164   1.376       .  A
C3156      C3167   1.389   1_554  A
C3157      H3169   1.066       .  S
C3158      H3170   1.082       .  S
C3159      H3171   1.079   1_455  S
C3160      H3172   1.068       .  S
C3161      H3173   1.074       .  S
C3162      H3174   1.076       .  S
C3163      H3175   1.078       .  S
C3164      H3176   1.081       .  S
C3165      C3502   1.518       .  S
C3166      C3519   1.476       .  S
C3167      C3488   1.466       .  S
C3168      C3477   1.484       .  S
O3179      C3187   1.240       .  A
O3179     Co3199   1.945       .  S
O3180      C3188   1.260       .  A
O3180     Co3200   2.027       .  S
O3181      C3189   1.313       .  A
O3181     Co3201   2.175       .  S
O3182      C3190   1.325       .  A
O3183      C3189   1.259       .  A
O3183     Co3200   1.904       .  S
O3184      C3190   1.239       .  A
O3184     Co3199   1.842       .  S
O3185      C3188   1.278       .  A
O3185     Co3202   2.073   1_655  S
O3186      C3187   1.259       .  A
C3188      C3295   1.536       .  S
C3190      C3271   1.540       .  S
O3191      C3204   1.287       .  A
O3191     Co3199   2.037       .  S
O3192      C3205   1.301       .  A
O3192     Co3200   2.130       .  S
O3193      C3206   1.282       .  A
O3194      C3207   1.302       .  A
O3194     Co3202   2.107   1_655  S
O3195      C3207   1.285       .  A
O3195     Co3200   1.972       .  S
O3196      C3206   1.283       .  A
O3196     Co3199   2.012       .  S
O3197      C3204   1.282       .  A
O3198      C3205   1.268       .  A
O3198     Co3201   2.003       .  S
Co3200     O3203   1.970   1_655  S
Co3201     O3203   2.219   1_655  S
Co3202     O3203   2.233       .  S
C3205      C3281   1.553       .  S
C3206      C3288   1.506       .  S
N3208      C3212   1.369       .  A
N3208      C3209   1.352       .  A
N3208      C3463   1.419       .  S
C3209      C3340   1.492       .  S
C3209      C3210   1.366       .  A
C3210      C3211   1.387       .  A
C3210      H3213   1.073       .  S
C3211      C3212   1.379       .  A
C3211      H3214   1.078       .  S
N3215      C3219   1.388       .  A
N3215      C3216   1.391       .  A
N3215      C3446   1.444       .  S
C3216      C3217   1.376       .  A
C3217      C3218   1.380       .  A
C3217      H3220   1.080       .  S
C3218      C3219   1.378       .  A
C3218      H3221   1.073       .  S
C3219      C3342   1.541       .  S
N3222      C3226   1.367       .  A
N3222      C3223   1.365       .  A
N3222      C3435   1.420       .  S
C3223      C3224   1.360       .  A
C3224      C3225   1.389       .  A
C3224      H3227   1.079       .  S
C3225      C3226   1.373       .  A
C3225      H3228   1.080       .  S
C3226      C3360   1.521       .  S
N3229      C3233   1.375       .  A
N3229      C3230   1.374       .  A
N3229      C3421   1.419       .  S
C3230      C3357   1.530       .  S
C3230      C3231   1.380       .  A
C3231      C3232   1.385       .  A
C3231      H3234   1.082       .  S
C3232      C3233   1.388       .  A
C3232      H3235   1.080       .  S
N3236      C3240   1.359   1_545  A
N3236      H3268   1.038       .  S
N3237      C3244   1.345   1_554  A
N3238      C3242   1.336   1_545  A
N3238      H3269   1.043       .  S
N3239      C3246   1.344   1_554  A
C3240      C3248   1.379   1_565  A
C3240      C3256   1.408       .  A
C3241      C3257   1.403       .  A
C3241      C3249   1.379       .  A
C3242      C3250   1.380       .  A
C3242      C3259   1.384       .  A
C3243      C3258   1.392       .  A
C3243      C3251   1.386       .  A
C3244      C3256   1.402       .  A
C3244      C3252   1.386       .  A
C3245      C3259   1.401       .  A
C3245      C3253   1.378       .  A
C3246      C3254   1.383   1_556  A
C3246      C3257   1.398       .  A
C3247      C3255   1.387       .  A
C3247      C3258   1.414       .  A
C3248      H3260   1.081   1_545  S
C3249      H3261   1.081       .  S
C3250      H3262   1.081       .  S
C3251      H3263   1.082       .  S
C3252      H3264   1.081       .  S
C3253      H3265   1.077       .  S
C3254      H3266   1.082   1_554  S
C3255      H3267   1.077       .  S
C3256      C3418   1.482       .  S
C3257      C3432   1.492       .  S
C3258      C3449   1.514       .  S
C3259      C3460   1.473       .  S
N3270      C3274   1.379       .  A
N3270      C3271   1.370       .  A
N3270      C3407   1.412       .  S
C3271      C3272   1.385       .  A
C3272      C3273   1.374       .  A
C3272      H3275   1.083       .  S
C3273      C3274   1.383       .  A
C3273      H3276   1.080       .  S
C3274      C3359   1.528       .  S
N3277      C3281   1.380       .  A
N3277      C3278   1.375       .  A
N3277      C3393   1.414       .  S
C3278      C3341   1.542       .  S
C3278      C3279   1.381       .  A
C3279      C3280   1.391       .  A
C3279      H3282   1.081       .  S
C3280      C3281   1.387       .  A
C3280      H3283   1.082       .  S
N3284      C3288   1.363       .  A
N3284      C3285   1.374       .  A
N3284      C3379   1.418       .  S
C3285      C3358   1.527       .  S
C3285      C3286   1.386       .  A
C3286      C3287   1.370       .  A
C3286      H3289   1.076       .  S
C3287      C3288   1.377       .  A
C3287      H3290   1.082       .  S
N3291      C3295   1.387       .  A
N3291      C3292   1.362       .  A
N3291      C3362   1.439       .  S
C3292      C3343   1.499       .  S
C3292      C3293   1.355       .  A
C3293      C3294   1.385       .  A
C3293      H3296   1.076       .  S
C3294      C3295   1.384       .  A
C3294      H3297   1.082       .  S
N3298      C3302   1.346       .  A
N3298      H3330   1.039       .  S
N3299      C3306   1.350       .  A
N3300      C3304   1.347       .  A
N3300      H3331   1.037       .  S
N3301      C3308   1.338       .  A
C3302      C3310   1.387       .  A
C3302      C3318   1.407       .  A
C3303      C3319   1.399       .  A
C3303      C3311   1.387       .  A
C3304      C3312   1.375       .  A
C3304      C3321   1.394       .  A
C3305      C3320   1.422       .  A
C3305      C3313   1.386       .  A
C3306      C3318   1.422       .  A
C3306      C3314   1.387       .  A
C3307      C3321   1.398       .  A
C3307      C3315   1.376   1_565  A
C3308      C3316   1.387       .  A
C3308      C3319   1.407       .  A
C3309      C3317   1.377   1_565  A
C3309      C3320   1.397       .  A
C3310      H3322   1.082       .  S
C3311      H3323   1.083       .  S
C3312      H3324   1.083       .  S
C3313      H3325   1.065       .  S
C3314      H3326   1.068       .  S
C3315      H3327   1.081   1_545  S
C3316      H3328   1.075       .  S
C3317      H3329   1.082   1_545  S
C3318      C3376   1.476       .  S
C3319      C3390   1.509       .  S
C3320      C3365   1.496       .  S
C3321      C3404   1.471       .  S
O3332      C3340   1.257       .  A
O3332     Co3352   1.893       .  S
O3333      C3341   1.260       .  A
O3333     Co3353   2.008       .  S
O3334      C3342   1.309       .  A
O3334     Co3354   2.140       .  S
O3335      C3343   1.266       .  A
O3335     Co3355   2.030       .  S
O3336      C3342   1.287       .  A
O3336     Co3353   1.941       .  S
O3337      C3343   1.245       .  A
O3337     Co3352   1.978       .  S
O3338      C3341   1.268       .  A
O3339      C3340   1.302       .  A
O3344      C3357   1.294       .  A
O3344     Co3352   2.065       .  S
O3345      C3358   1.252       .  A
O3345     Co3353   1.977       .  S
O3346      C3359   1.288       .  A
O3347      C3360   1.268       .  A
O3348      C3360   1.304       .  A
O3348     Co3353   2.109       .  S
O3349      C3359   1.271       .  A
O3349     Co3352   1.981       .  S
O3350      C3357   1.280       .  A
O3350     Co3355   2.058       .  S
O3351      C3358   1.275       .  A
O3351     Co3354   2.074       .  S
Co3352     O3356   1.960       .  S
Co3355     O3356   2.147       .  S
C3361      C3362   1.402       .  A
C3361      C3366   1.411       .  A
C3361      H3368   1.071       .  S
C3362      C3363   1.420       .  A
C3363      C3364   1.399       .  A
C3363      N3370   1.432       .  S
C3364      C3365   1.396       .  A
C3364      H3369   1.070       .  S
C3365      C3366   1.400       .  A
C3366      N3367   1.421       .  S
N3367      H3371   1.044       .  S
N3367      H3372   1.044       .  S
N3370      H3373   1.045       .  S
N3370      H3374   1.044       .  S
C3375      C3376   1.406       .  A
C3375      C3380   1.395       .  A
C3375      H3382   1.078       .  S
C3376      C3377   1.392       .  A
C3377      C3378   1.391       .  A
C3377      N3384   1.427       .  S
C3378      C3379   1.415       .  A
C3378      H3383   1.079       .  S
C3379      C3380   1.404       .  A
C3380      N3381   1.432       .  S
N3381      H3385   1.045       .  S
N3381      H3386   1.043       .  S
N3384      H3387   1.045       .  S
N3384      H3388   1.044       .  S
C3389      C3390   1.404       .  A
C3389      C3394   1.404       .  A
C3389      H3396   1.074       .  S
C3390      C3391   1.420       .  A
C3391      C3392   1.392       .  A
C3391      N3398   1.422       .  S
C3392      C3393   1.384       .  A
C3392      H3397   1.084       .  S
C3393      C3394   1.392       .  A
C3394      N3395   1.439       .  S
N3395      H3399   1.040       .  S
N3395      H3400   1.044       .  S
N3398      H3401   1.036       .  S
N3398      H3402   1.038       .  S
C3403      C3404   1.382       .  A
C3403      C3408   1.375       .  A
C3403      H3410   1.071       .  S
C3404      C3405   1.417       .  A
C3405      C3406   1.397       .  A
C3405      N3412   1.436       .  S
C3406      C3407   1.396       .  A
C3406      H3411   1.079       .  S
C3407      C3408   1.394       .  A
C3408      N3409   1.428       .  S
N3409      H3413   1.038       .  S
N3409      H3414   1.042       .  S
N3412      H3415   1.044       .  S
N3412      H3416   1.045       .  S
C3417      C3418   1.410       .  A
C3417      C3422   1.390       .  A
C3417      H3424   1.082       .  S
C3418      C3419   1.400       .  A
C3419      C3420   1.382       .  A
C3419      N3426   1.427       .  S
C3420      C3421   1.400       .  A
C3420      H3425   1.081       .  S
C3421      C3422   1.397       .  A
C3422      N3423   1.430       .  S
N3423      H3427   1.046       .  S
N3423      H3428   1.046       .  S
N3426      H3429   1.042       .  S
N3426      H3430   1.045       .  S
C3431      C3432   1.403       .  A
C3431      C3436   1.396       .  A
C3431      H3438   1.073       .  S
C3432      C3433   1.431       .  A
C3433      C3434   1.394       .  A
C3433      N3440   1.441       .  S
C3434      C3435   1.395       .  A
C3434      H3439   1.084       .  S
C3435      C3436   1.383       .  A
C3436      N3437   1.419       .  S
N3437      H3441   1.046       .  S
N3437      H3442   1.044       .  S
N3440      H3443   1.033   1_556  S
N3440      H3444   1.044       .  S
C3445      C3446   1.398       .  A
C3445      C3450   1.404       .  A
C3445      H3452   1.067       .  S
C3446      C3447   1.399       .  A
C3447      C3448   1.396       .  A
C3447      N3454   1.434       .  S
C3448      C3449   1.410       .  A
C3448      H3453   1.070       .  S
C3449      C3450   1.419       .  A
C3450      N3451   1.429       .  S
N3451      H3455   1.043       .  S
N3451      H3456   1.045       .  S
N3454      H3457   1.044       .  S
N3454      H3458   1.044       .  S
C3459      C3460   1.405       .  A
C3459      C3464   1.397       .  A
C3459      H3466   1.085       .  S
C3460      C3461   1.399       .  A
C3461      C3462   1.400       .  A
C3461      N3468   1.422       .  S
C3462      C3463   1.393       .  A
C3462      H3467   1.082       .  S
C3463      C3464   1.411       .  A
C3464      N3465   1.432       .  S
N3465      H3469   1.046       .  S
N3465      H3470   1.046       .  S
N3468      H3471   1.042       .  S
N3468      H3472   1.044       .  S
C3473      C3474   1.380       .  A
C3473      C3478   1.387       .  A
C3473      H3480   1.084       .  S
C3474      C3475   1.394       .  A
C3475      C3476   1.382       .  A
C3475      N3482   1.428       .  S
C3476      C3477   1.389       .  A
C3476      H3481   1.073       .  S
C3477      C3478   1.425       .  A
C3478      N3479   1.429       .  S
N3479      H3483   1.045       .  S
N3479      H3484   1.045   1_655  S
N3482      H3485   1.045       .  S
N3482      H3486   1.040       .  S
C3487      C3488   1.391       .  A
C3487      C3492   1.388       .  A
C3487      H3494   1.081       .  S
C3488      C3489   1.402       .  A
C3489      C3490   1.394       .  A
C3489      N3496   1.425       .  S
C3490      C3491   1.393       .  A
C3490      H3495   1.083       .  S
C3491      C3492   1.426       .  A
C3492      N3493   1.436       .  S
N3493      H3497   1.042       .  S
N3493      H3498   1.042       .  S
N3496      H3499   1.043       .  S
N3496      H3500   1.045   1_556  S
C3501      C3502   1.391       .  A
C3501      C3506   1.404       .  A
C3501      H3508   1.055       .  S
C3502      C3503   1.421       .  A
C3503      C3504   1.405       .  A
C3503      N3510   1.419       .  S
C3504      C3505   1.387       .  A
C3504      H3509   1.084       .  S
C3505      C3506   1.405       .  A
C3506      N3507   1.433       .  S
N3507      H3511   1.043       .  S
N3507      H3512   1.043       .  S
N3510      H3513   1.042       .  S
N3510      H3514   1.043       .  S
C3515      C3516   1.418       .  A
C3515      C3520   1.404       .  A
C3515      H3522   1.082       .  S
C3516      C3517   1.422       .  A
C3517      C3518   1.394       .  A
C3517      N3524   1.436       .  S
C3518      C3519   1.395       .  A
C3518      H3523   1.074       .  S
C3519      C3520   1.378       .  A
C3520      N3521   1.423       .  S
N3521      H3525   1.046       .  S
N3521      H3526   1.041       .  S
N3524      H3527   1.046       .  S
N3524      H3528   1.043       .  S
