geometry optimzed in LAMMPS
_audit_creation_date              2020-11-30 
_audit_creation_method            'lammps2cif' 
_symmetry_space_group_name_H-M    'P1' 
_symmetry_Int_Tables_number       1 
_symmetry_cell_setting            triclinic 
loop_ 
_symmetry_equiv_pos_as_xyz 
  x,y,z 
_cell_length_a                    47.94520664 
_cell_length_b                    44.81838642232764 
_cell_length_c                    42.852816965538025 
_cell_angle_alpha                 89.78724976343614 
_cell_angle_beta                  90.21639560344455 
_cell_angle_gamma                 89.9592554906727 
loop_ 
_atom_site_label 
_atom_site_type_symbol 
_atom_site_fract_x 
_atom_site_fract_y 
_atom_site_fract_z 
_atom_site_charge 
C1          C  0.65990051  0.18660782  0.70891235     0.03500
C2          C  0.63743543  0.19894019  0.72516538    -0.12700
C3          C  0.64026928  0.22608989  0.74110934     0.01000
C4          C  0.66638728  0.24036756  0.74139801    -0.11200
C5          C  0.68934072  0.22818015  0.72531960     0.03500
C6          C  0.68572464  0.20116120  0.70919459    -0.10600
H7          H  0.61750495  0.18754862  0.72486304     0.09100
H8          H  0.66855272  0.26139612  0.75344713     0.06600
H9          H  0.70248246  0.19214272  0.69521979     0.06400
C10         C  0.66004725  0.04552877  0.04311777     0.03500
C11         C  0.68557693  0.03056391  0.04110422    -0.12700
C12         C  0.68840179  0.00491104  0.02259972     0.01000
C13         C  0.66508241  0.99478795  0.00571110    -0.11200
C14         C  0.63892178  0.00866665  0.00890359     0.03500
C15         C  0.63664932  0.03423841  0.02761849    -0.10600
H16         H  0.70286055  0.03846347  0.05515193     0.09100
H17         H  0.66720800  0.97590355  0.99024651     0.06600
H18         H  0.61664304  0.04509958  0.03062940     0.06400
C19         C  0.67308756  0.43998712  0.21469349     0.03500
C20         C  0.69728550  0.45720965  0.21837992    -0.12700
C21         C  0.69603875  0.48852860  0.21888693     0.01000
C22         C  0.67021960  0.50264608  0.21362847    -0.11200
C23         C  0.64605008  0.48567342  0.20868003     0.03500
C24         C  0.64747332  0.45447417  0.20998220    -0.10600
H25         H  0.71731608  0.44616276  0.22006983     0.09100
H26         H  0.66875935  0.52676199  0.21331798     0.06600
H27         H  0.62865413  0.44149987  0.20651690     0.06400
N28         N  0.67644898  0.96928033  0.51593482    -0.26900
N29         N  0.67649673  0.97011392  0.54680538    -0.34800
C30         C  0.67958046  0.94215513  0.55779615     0.01400
C31         C  0.68135858  0.92277894  0.53269066     0.07400
C32         C  0.67957602  0.94089977  0.50657388    -0.05700
H33         H  0.67978099  0.93642305  0.58232383     0.08100
H34         H  0.67900888  0.93384148  0.48246268     0.09300
Cu35       Cu  0.66953214  0.00835922  0.57332769     0.44200
Cu36       Cu  0.66941043  0.00552177  0.48695531     0.42000
Cu37       Cu  0.64534779  0.06959590  0.52597502     0.43900
N38         N  0.65842755  0.04977019  0.59158541    -0.34300
N39         N  0.64858705  0.07134665  0.57360557    -0.28600
C40         C  0.64415099  0.09574927  0.59073531    -0.04700
C41         C  0.65152889  0.08967911  0.62129214     0.07500
C42         C  0.66052151  0.06012534  0.62104127     0.01300
H43         H  0.63747438  0.11694251  0.58111800     0.09000
H44         H  0.66833297  0.04718033  0.64053390     0.08100
N45         N  0.65259187  0.06920431  0.47890444    -0.35800
N46         N  0.66172088  0.04539693  0.46415679    -0.28000
C47         C  0.66798689  0.05301694  0.43468975    -0.03200
C48         C  0.66284842  0.08332259  0.43080095     0.05400
C49         C  0.65303654  0.09274589  0.45949282     0.03500
H50         H  0.67691673  0.03783713  0.41790305     0.08600
H51         H  0.64864064  0.11531496  0.46675224     0.07400
N52         N  0.68339605  0.26460151  0.23221884    -0.26900
N53         N  0.67983372  0.26318304  0.20161960    -0.34800
C54         C  0.67706398  0.29108449  0.19030561     0.01400
C55         C  0.67896575  0.31092432  0.21497751     0.07400
C56         C  0.68309529  0.29326180  0.24108624    -0.05700
H57         H  0.67426308  0.29641159  0.16586204     0.08100
H58         H  0.68530636  0.30060471  0.26498746     0.09300
Cu59       Cu  0.67845286  0.22369211  0.17623109     0.44200
Cu60       Cu  0.68808134  0.22860458  0.26200723     0.42000
Cu61       Cu  0.69397281  0.15953844  0.22395313     0.43900
N62         N  0.67635079  0.18008353  0.15990489    -0.34300
N63         N  0.68187356  0.15694661  0.17810048    -0.28600
C64         C  0.67692395  0.13166701  0.16249499    -0.04700
C65         C  0.66794991  0.13902390  0.13286304     0.07500
C66         C  0.66813945  0.16995429  0.13173396     0.01300
H67         H  0.67983919  0.10950281  0.17206187     0.09000
H68         H  0.66218732  0.18397360  0.11220892     0.08100
N69         N  0.69557352  0.16335728  0.27155307    -0.35800
N70         N  0.69220388  0.18892578  0.28617583    -0.28000
C71         C  0.68939014  0.18351600  0.31689174    -0.03200
C72         C  0.69126390  0.15295500  0.32166407     0.05400
C73         C  0.69515264  0.14096483  0.29232938     0.03500
H74         H  0.68500364  0.20039668  0.33417722     0.08600
H75         H  0.69519110  0.11761505  0.28607966     0.07400
C76         C  0.67591846  0.79370382  0.52953102     0.03500
C77         C  0.64983918  0.78092136  0.53570671    -0.12700
C78         C  0.64654941  0.74992080  0.53714372     0.01000
C79         C  0.66955914  0.73134379  0.53143679    -0.11200
C80         C  0.69588220  0.74364382  0.52461464     0.03500
C81         C  0.69883614  0.77495007  0.52413726    -0.10600
H82         H  0.63216838  0.79521537  0.54062148     0.09100
H83         H  0.66684221  0.70737087  0.53240394     0.06600
H84         H  0.71924074  0.78479403  0.52094473     0.06400
C85         C  0.23341860  0.80088897  0.52418605     0.03500
C86         C  0.21141163  0.78194268  0.51545406    -0.12700
C87         C  0.21523648  0.75076018  0.51451275     0.01000
C88         C  0.24159456  0.73891797  0.52224904    -0.11200
C89         C  0.26346191  0.75760771  0.53160060     0.03500
C90         C  0.25929389  0.78847175  0.53226331    -0.10600
H91         H  0.19101955  0.79144601  0.51094253     0.09100
H92         H  0.24511684  0.71505442  0.52164281     0.06600
H93         H  0.27609720  0.80288417  0.53991858     0.06400
C94         C  0.24309841  0.18630162  0.71585103     0.03500
C95         C  0.26654724  0.19560071  0.73282107    -0.12700
C96         C  0.26598711  0.22249121  0.74945544     0.01000
C97         C  0.24159844  0.23982409  0.74923560    -0.11200
C98         C  0.21854763  0.23179423  0.73083743     0.03500
C99         C  0.21935182  0.20454719  0.71467882    -0.10600
H100        H  0.28558115  0.18262134  0.73172011     0.09100
H101        H  0.24115588  0.26037724  0.76243614     0.06600
H102        H  0.20240176  0.19833969  0.69925499     0.06400
N103        N  0.50723768  0.92874400  0.93493009    -0.26900
N104        N  0.49349997  0.95330175  0.94222166    -0.34800
C105        C  0.51147941  0.97315771  0.95436699     0.01400
C106        C  0.53785285  0.96048753  0.95465540     0.07400
C107        C  0.53428309  0.93227496  0.94224258    -0.05700
H108        H  0.50547899  0.99472842  0.96334833     0.08100
H109        H  0.55014681  0.91542861  0.93885878     0.09300
Cu110      Cu  0.45074766  0.95804607  0.93718329     0.44200
Cu111      Cu  0.48890450  0.89131983  0.91575509     0.42000
Cu112      Cu  0.41422285  0.89212100  0.91054190     0.43900
N113        N  0.40772787  0.95478427  0.93435628    -0.34300
N114        N  0.39452729  0.93037715  0.92541920    -0.28600
C115        C  0.36696383  0.93432002  0.92892971    -0.04700
C116        C  0.36255017  0.96257632  0.94077985     0.07500
C117        C  0.38884403  0.97501744  0.94368902     0.01300
H118        H  0.35143156  0.91751427  0.92388859     0.09000
H119        H  0.39397805  0.99649802  0.95360835     0.08100
N120        N  0.43849029  0.85853518  0.89227988    -0.35800
N121        N  0.46599892  0.85844382  0.89379816    -0.28000
C122        C  0.47581163  0.83654680  0.87557068    -0.03200
C123        C  0.45335618  0.82211801  0.86191085     0.05400
C124        C  0.43001075  0.83661990  0.87318802     0.03500
H125        H  0.49770186  0.83275831  0.87099185     0.08600
H126        H  0.40862828  0.83343242  0.86578817     0.07400
N127        N  0.39656112  0.71291358  0.62739267    -0.26900
N128        N  0.41016971  0.71128007  0.60065924    -0.34800
C129        C  0.39179865  0.71400920  0.57702401     0.01400
C130        C  0.36537850  0.71726608  0.58949109     0.07400
C131        C  0.36923514  0.71646346  0.62147550    -0.05700
H132        H  0.39741958  0.71476518  0.55260815     0.08100
H133        H  0.35364602  0.72033144  0.63919584     0.09300
Cu134      Cu  0.45328480  0.70885722  0.59709429     0.44200
Cu135      Cu  0.41535108  0.71559007  0.67079686     0.42000
Cu136      Cu  0.48980552  0.71343766  0.67061247     0.43900
N137        N  0.49644985  0.71010806  0.60088258    -0.34300
N138        N  0.50957844  0.71122459  0.62800529    -0.28600
C139        C  0.53706646  0.71400291  0.62304059    -0.04700
C140        C  0.54168422  0.71457815  0.59117676     0.07500
C141        C  0.51536286  0.71220653  0.57783526     0.01300
H142        H  0.55229389  0.71722830  0.64139728     0.09000
H143        H  0.51022727  0.71284460  0.55323960     0.08100
N144        N  0.46676240  0.72466029  0.70936924    -0.35800
N145        N  0.43924798  0.72568321  0.70957228    -0.28000
C146        C  0.43076936  0.73830805  0.73633075    -0.03200
C147        C  0.45416079  0.74593133  0.75360521     0.05400
C148        C  0.47659022  0.73658209  0.73589125     0.03500
H149        H  0.40931770  0.74376206  0.74161678     0.08600
H150        H  0.49850780  0.73965161  0.74096327     0.07400
N151        N  0.39465308  0.53585986  0.12610409    -0.26900
N152        N  0.40845097  0.53646913  0.15288228    -0.34800
C153        C  0.39004918  0.53557464  0.17648688     0.01400
C154        C  0.36340966  0.53442402  0.16393908     0.07400
C155        C  0.36718325  0.53489769  0.13197199    -0.05700
H156        H  0.39576866  0.53439308  0.20090017     0.08100
H157        H  0.35125186  0.53203155  0.11428470     0.09300
Cu158      Cu  0.45159007  0.53481909  0.15655496     0.44200
Cu159      Cu  0.41287754  0.52952238  0.08291487     0.42000
Cu160      Cu  0.48696699  0.52534201  0.08286366     0.43900
N161        N  0.49458366  0.53150844  0.15244612    -0.34300
N162        N  0.50722532  0.52882657  0.12527449    -0.28600
C163        C  0.53467078  0.52536774  0.13010260    -0.04700
C164        C  0.53983560  0.52573214  0.16191780     0.07500
C165        C  0.51379739  0.52980093  0.17539397     0.01300
H166        H  0.54954235  0.52110207  0.11172926     0.09000
H167        H  0.50890221  0.53090433  0.19995608     0.08100
N168        N  0.46288607  0.51272057  0.04516397    -0.35800
N169        N  0.43537351  0.51377426  0.04527327    -0.28000
C170        C  0.42560507  0.49941534  0.01999720    -0.03200
C171        C  0.44814675  0.48871855  0.00321109     0.05400
C172        C  0.47143472  0.49788236  0.01975360     0.03500
H173        H  0.40371631  0.49584888  0.01511698     0.08600
H174        H  0.49292055  0.49210543  0.01503727     0.07400
N175        N  0.39732426  0.30426367  0.82066409    -0.26900
N176        N  0.41118526  0.28015100  0.81219615    -0.34800
C177        C  0.39317414  0.26018878  0.80031892     0.01400
C178        C  0.36680015  0.27259641  0.80101502     0.07400
C179        C  0.37015946  0.30052115  0.81407884    -0.05700
H180        H  0.39902604  0.23887017  0.79054410     0.08100
H181        H  0.35411250  0.31698155  0.81833067     0.09300
Cu182      Cu  0.45414812  0.27736537  0.81360484     0.44200
Cu183      Cu  0.41601638  0.34084005  0.84097809     0.42000
Cu184      Cu  0.49173256  0.34149469  0.84341586     0.43900
N185        N  0.49679562  0.28279115  0.80991911    -0.34300
N186        N  0.51074004  0.30610426  0.82053737    -0.28600
C187        C  0.53781368  0.30307737  0.81286917    -0.04700
C188        C  0.54085002  0.27684874  0.79620807     0.07500
C189        C  0.51443643  0.26454259  0.79497782     0.01300
H190        H  0.55390256  0.31922382  0.81813927     0.09000
H191        H  0.50833167  0.24393839  0.78381976     0.08100
N192        N  0.46671119  0.37192400  0.86683465    -0.35800
N193        N  0.43915427  0.37140617  0.86596909    -0.28000
C194        C  0.42914824  0.39182833  0.88587058    -0.03200
C195        C  0.45143879  0.40614118  0.89987849     0.05400
C196        C  0.47495994  0.39295012  0.88719618     0.03500
H197        H  0.40721864  0.39531592  0.89048234     0.08600
H198        H  0.49645670  0.39704636  0.89359724     0.07400
C199        C  0.25087955  0.05309018  0.03540164     0.03500
C200        C  0.22510277  0.03860169  0.03795050    -0.12700
C201        C  0.21958964  0.01259815  0.02079054     0.01000
C202        C  0.23993774  0.00201628  0.00000277    -0.11200
C203        C  0.26601484  0.01610028  0.99757114     0.03500
C204        C  0.27125258  0.04168714  0.01540766    -0.10600
H205        H  0.21010846  0.04664209  0.05480183     0.09100
H206        H  0.23577202  0.98229962  0.98621085     0.06600
H207        H  0.29158119  0.05218317  0.01474903     0.06400
C208        C  0.23221608  0.44539498  0.21046202     0.03500
C209        C  0.20771852  0.46124535  0.21671013    -0.12700
C210        C  0.20815894  0.49251924  0.21905833     0.01000
C211        C  0.23374013  0.50766094  0.21573704    -0.11200
C212        C  0.25829640  0.49192623  0.20892301     0.03500
C213        C  0.25728336  0.46078460  0.20639377    -0.10600
H214        H  0.18820006  0.44920343  0.21845937     0.09100
H215        H  0.23451120  0.53169570  0.21805884     0.06600
H216        H  0.27603361  0.44840234  0.20078760     0.06400
N217        N  0.23245101  0.97677758  0.51226730    -0.26900
N218        N  0.23035929  0.97725378  0.54307662    -0.34800
C219        C  0.22848170  0.94907046  0.55370899     0.01400
C220        C  0.22948961  0.92981456  0.52851199     0.07400
C221        C  0.23189530  0.94826541  0.50265329    -0.05700
H222        H  0.22616976  0.94325383  0.57806482     0.08100
H223        H  0.23358798  0.94149414  0.47853113     0.09300
Cu224      Cu  0.23040970  0.01530921  0.57072773     0.44200
Cu225      Cu  0.23614920  0.01402067  0.48336723     0.42000
Cu226      Cu  0.23415339  0.08150227  0.52536921     0.43900
N227        N  0.23320950  0.05739765  0.59067084    -0.34300
N228        N  0.23503874  0.08152084  0.57304440    -0.28600
C229        C  0.23861392  0.10550289  0.59108147    -0.04700
C230        C  0.23906910  0.09624031  0.62175663     0.07500
C231        C  0.23523105  0.06557566  0.62086962     0.01300
H232        H  0.24079756  0.12806596  0.58238004     0.09000
H233        H  0.23487115  0.05035105  0.64051250     0.08100
N234        N  0.23707725  0.08038227  0.47784321    -0.35800
N235        N  0.23850970  0.05552057  0.46161638    -0.28000
C236        C  0.24158271  0.06266431  0.43127789    -0.03200
C237        C  0.24218032  0.09364702  0.42847301     0.05400
C238        C  0.23900046  0.10393335  0.45866228     0.03500
H239        H  0.24366111  0.04648059  0.41277269     0.08600
H240        H  0.23780575  0.12673812  0.46655545     0.07400
N241        N  0.25267924  0.27209335  0.22416390    -0.26900
N242        N  0.25246150  0.27037307  0.19337035    -0.34800
C243        C  0.24696053  0.29759017  0.18146833     0.01400
C244        C  0.24364813  0.31746344  0.20598841     0.07400
C245        C  0.24749566  0.30030405  0.23260916    -0.05700
H246        H  0.24510551  0.30215642  0.15677656     0.08100
H247        H  0.24685117  0.30768052  0.25658958     0.09300
Cu248      Cu  0.25955595  0.23132863  0.16863941     0.44200
Cu249      Cu  0.25857593  0.23681150  0.25470833     0.42000
Cu250      Cu  0.27662897  0.16892410  0.21847138     0.43900
N251        N  0.26743193  0.18867199  0.15207799    -0.34300
N252        N  0.27468223  0.16637535  0.17065104    -0.28600
C253        C  0.27665127  0.14127121  0.15393769    -0.04700
C254        C  0.27008291  0.14780539  0.12325926     0.07500
C255        C  0.26442801  0.17818323  0.12284558     0.01300
H256        H  0.28074462  0.11945614  0.16384892     0.09000
H257        H  0.25789608  0.19156133  0.10307962     0.08100
N258        N  0.26864491  0.17199979  0.26541238    -0.35800
N259        N  0.26174582  0.19716360  0.27925820    -0.28000
C260        C  0.25554742  0.19135979  0.30926967    -0.03200
C261        C  0.25835712  0.16090415  0.31427025     0.05400
C262        C  0.26691632  0.14945484  0.28595830     0.03500
H263        H  0.24849078  0.20786533  0.32582995     0.08600
H264        H  0.27130007  0.12641078  0.28042095     0.07400
C265        C  0.74920831  0.68118420  0.53455260     0.03500
C266        C  0.77015363  0.69082592  0.51414872    -0.12700
C267        C  0.76687899  0.71708631  0.49664456     0.01000
C268        C  0.74172241  0.73300661  0.49868744    -0.11200
C269        C  0.72067980  0.72416342  0.51956827     0.03500
C270        C  0.72452690  0.69788215  0.53716925    -0.10600
H271        H  0.78955813  0.67847704  0.51292843     0.09100
H272        H  0.73877649  0.75270556  0.48435444     0.06600
H273        H  0.70909238  0.69120434  0.55421054     0.06400
C274        C  0.17149854  0.94657035  0.03506139     0.03500
C275        C  0.19515285  0.96367710  0.02791671    -0.12700
C276        C  0.19385712  0.99500414  0.02675166     0.01000
C277        C  0.16843805  0.00921701  0.03339611    -0.11200
C278        C  0.14466376  0.99246104  0.04080500     0.03500
C279        C  0.14618209  0.96118543  0.04110380    -0.10600
H280        H  0.21492388  0.95248921  0.02443754     0.09100
H281        H  0.16704988  0.03334267  0.03303000     0.06600
H282        H  0.12776237  0.94830333  0.04674742     0.06400
C283        C  0.73940805  0.93978828  0.02573939     0.03500
C284        C  0.71472461  0.95626205  0.02175715    -0.12700
C285        C  0.71501385  0.98768431  0.02289773     0.01000
C286        C  0.74063173  0.00233093  0.02754821    -0.11200
C287        C  0.76522162  0.98608978  0.03255908     0.03500
C288        C  0.76462165  0.95490309  0.03075841    -0.10600
H289        H  0.69515156  0.94439281  0.01957394     0.09100
H290        H  0.74151263  0.02645496  0.02823700     0.06600
H291        H  0.78363174  0.94231163  0.03467383     0.06400
N292        N  0.89696108  0.79202185  0.41492725    -0.26900
N293        N  0.91015784  0.76700038  0.42228196    -0.34800
C294        C  0.89156220  0.74754156  0.43415073     0.01400
C295        C  0.86556126  0.76109875  0.43443904     0.07400
C296        C  0.86987273  0.78927480  0.42221520    -0.05700
H297        H  0.89688670  0.72579709  0.44345582     0.08100
H298        H  0.85450500  0.80676227  0.41928128     0.09300
Cu299      Cu  0.95332696  0.76159598  0.41940889     0.44200
Cu300      Cu  0.91539419  0.82961234  0.39591704     0.42000
Cu301      Cu  0.98896369  0.82908245  0.39521710     0.43900
N302        N  0.99663195  0.76635601  0.41936199    -0.34300
N303        N  0.00905860  0.79147726  0.41112628    -0.28600
C304        C  0.03656254  0.78907110  0.41615199    -0.04700
C305        C  0.04202716  0.76105003  0.42814576     0.07500
C306        C  0.01620252  0.74712454  0.42984906     0.01300
H307        H  0.05138806  0.80688438  0.41229398     0.09000
H308        H  0.01173457  0.72545099  0.43981480     0.08100
N309        N  0.96598801  0.86281949  0.37520708    -0.35800
N310        N  0.93849862  0.86299229  0.37489506    -0.28000
C311        C  0.92960672  0.88567005  0.35679210    -0.03200
C312        C  0.95277076  0.90056375  0.34515409     0.05400
C313        C  0.97545204  0.88534818  0.35751579     0.03500
H314        H  0.90795995  0.88956238  0.35095886     0.08600
H315        H  0.99729180  0.88941420  0.35294291     0.07400
N316        N  0.89779793  0.03454263  0.12462294    -0.26900
N317        N  0.91142853  0.03887268  0.09823151    -0.34800
C318        C  0.89326389  0.03700850  0.07427178     0.01400
C319        C  0.86696123  0.03120072  0.08623526     0.07400
C320        C  0.87072039  0.03004946  0.11823264    -0.05700
H321        H  0.89905515  0.03872488  0.04997001     0.08100
H322        H  0.85528428  0.02410119  0.13552344     0.09300
Cu323      Cu  0.95451763  0.04367544  0.09584746     0.44200
Cu324      Cu  0.91644345  0.02882790  0.16776374     0.42000
Cu325      Cu  0.99040591  0.03523284  0.17007477     0.43900
N326        N  0.99767539  0.04470490  0.10088667    -0.34300
N327        N  0.01045023  0.04256958  0.12818108    -0.28600
C328        C  0.03801339  0.04004031  0.12357652    -0.04700
C329        C  0.04308874  0.04043516  0.09179668     0.07500
C330        C  0.01692566  0.04349247  0.07813816     0.01300
H331        H  0.05280188  0.03502875  0.14196757     0.09000
H332        H  0.01202288  0.04278900  0.05349265     0.08100
N333        N  0.96753067  0.01722064  0.20625378    -0.35800
N334        N  0.94011733  0.01478306  0.20540211    -0.28000
C335        C  0.93170602  0.99825863  0.22983170    -0.03200
C336        C  0.95502123  0.98955449  0.24678837     0.05400
C337        C  0.97737277  0.00230761  0.23122194     0.03500
H338        H  0.91039628  0.99122735  0.23359529     0.08600
H339        H  0.99929491  0.99998911  0.23665560     0.07400
C340        C  0.16470370  0.68628249  0.52361980     0.03500
C341        C  0.14266505  0.69538607  0.50438342    -0.12700
C342        C  0.14461479  0.72177835  0.48674390     0.01000
C343        C  0.16934526  0.73870584  0.48830479    -0.11200
C344        C  0.19113648  0.73051143  0.50871576     0.03500
C345        C  0.18866025  0.70390690  0.52590197    -0.10600
H346        H  0.12359658  0.68242021  0.50417235     0.09100
H347        H  0.17143102  0.75858382  0.47410517     0.06600
H348        H  0.20459502  0.69760063  0.54266115     0.06400
C349        C  0.17931643  0.30448490  0.71625893     0.03500
C350        C  0.15258194  0.29360875  0.70953022    -0.12700
C351        C  0.14711817  0.26292790  0.71009312     0.01000
C352        C  0.16815302  0.24297923  0.71910709    -0.11200
C353        C  0.19524257  0.25327649  0.72562563     0.03500
C354        C  0.20054793  0.28422572  0.72416221    -0.10600
H355        H  0.13600700  0.30897254  0.70324120     0.09100
H356        H  0.16356420  0.21933095  0.71969201     0.06600
H357        H  0.22147024  0.29266303  0.72769652     0.06400
C358        C  0.74153574  0.29163243  0.71734769     0.03500
C359        C  0.71660283  0.27605997  0.72204431    -0.12700
C360        C  0.71631922  0.24465787  0.72303596     0.01000
C361        C  0.74179743  0.22920194  0.71969811    -0.11200
C362        C  0.76679594  0.24471741  0.71431754     0.03500
C363        C  0.76637566  0.27594008  0.71302186    -0.10600
H364        H  0.69739697  0.28865579  0.72365936     0.09100
H365        H  0.74230016  0.20507047  0.72081057     0.06600
H366        H  0.78532421  0.28817728  0.70799066     0.06400
N367        N  0.17269423  0.77129749  0.01738123    -0.26900
N368        N  0.17085988  0.76966495  0.04814130    -0.34800
C369        C  0.17308115  0.79738720  0.05993213     0.01400
C370        C  0.17661824  0.81735908  0.03542787     0.07400
C371        C  0.17614538  0.79988125  0.00888419    -0.05700
H372        H  0.17154876  0.80263864  0.08448424     0.08100
H373        H  0.17672801  0.80738136  0.98489052     0.09300
Cu374      Cu  0.16318407  0.73032731  0.07269451     0.44200
Cu375      Cu  0.16815717  0.73605836  0.98667711     0.42000
Cu376      Cu  0.14622406  0.66893699  0.02153799     0.43900
N377        N  0.15274836  0.68781352  0.08851801    -0.34300
N378        N  0.14558987  0.66607573  0.06935230    -0.28600
C379        C  0.14059682  0.64120186  0.08581362    -0.04700
C380        C  0.14504701  0.64724543  0.11697089     0.07500
C381        C  0.15274581  0.67708641  0.11794109     0.01300
H382        H  0.13559791  0.61980800  0.07560311     0.09000
H383        H  0.15840161  0.68990246  0.13834177     0.08100
N384        N  0.15249919  0.67292994  0.97435049    -0.35800
N385        N  0.16100157  0.69781709  0.96095657    -0.28000
C386        C  0.16482521  0.69277318  0.93033190    -0.03200
C387        C  0.15827506  0.66316371  0.92427258     0.05400
C388        C  0.15071382  0.65133271  0.95289364     0.03500
H389        H  0.17232927  0.70926355  0.91389568     0.08600
H390        H  0.14564260  0.62839543  0.95826237     0.07400
N391        N  0.19084804  0.47974510  0.72895285    -0.26900
N392        N  0.19076911  0.47993154  0.69806108    -0.34800
C393        C  0.19265855  0.45169024  0.68781664     0.01400
C394        C  0.19404814  0.43267737  0.71336824     0.07400
C395        C  0.19284343  0.45137124  0.73903909    -0.05700
H396        H  0.19215150  0.44547252  0.66345710     0.08100
H397        H  0.19182643  0.44487243  0.76332937     0.09300
Cu398      Cu  0.18527545  0.51758753  0.67022258     0.44200
Cu399      Cu  0.18586685  0.51717211  0.75703704     0.42000
Cu400      Cu  0.17626567  0.58427403  0.71448807     0.43900
N401        N  0.17579247  0.55855030  0.64997221    -0.34300
N402        N  0.17158634  0.58257807  0.66705126    -0.28600
C403        C  0.16517368  0.60564710  0.64846440    -0.04700
C404        C  0.16565023  0.59595976  0.61799023     0.07500
C405        C  0.17257652  0.56592585  0.61964413     0.01300
H406        H  0.16157162  0.62816807  0.65653590     0.09000
H407        H  0.17520723  0.55067545  0.60037017     0.08100
N408        N  0.17870282  0.58330334  0.76214492    -0.35800
N409        N  0.18090948  0.55839234  0.77849977    -0.28000
C410        C  0.17913049  0.56510732  0.80903186    -0.03200
C411        C  0.17620025  0.59577468  0.81166430     0.05400
C412        C  0.17599876  0.60654735  0.78151098     0.03500
H413        H  0.17972893  0.54894653  0.82783939     0.08600
H414        H  0.17283301  0.62940383  0.77408948     0.07400
N415        N  0.74516839  0.76377980  0.01430055    -0.26900
N416        N  0.74437144  0.76387623  0.04514879    -0.34800
C417        C  0.74061580  0.79210723  0.05486604     0.01400
C418        C  0.73879919  0.81061609  0.02889454     0.07400
C419        C  0.74182760  0.79176934  0.00364119    -0.05700
H420        H  0.73996075  0.79873437  0.07910023     0.08100
H421        H  0.74322292  0.79800019  0.97930379     0.09300
Cu422      Cu  0.75058049  0.72612351  0.07282540     0.44200
Cu423      Cu  0.75411344  0.72696251  0.98719560     0.42000
Cu424      Cu  0.78045285  0.66496304  0.02849108     0.43900
N425        N  0.76013538  0.68456961  0.09194916    -0.34300
N426        N  0.77196714  0.66315584  0.07550428    -0.28600
C427        C  0.77505360  0.63885302  0.09341260    -0.04700
C428        C  0.76462752  0.64489046  0.12270423     0.07500
C429        C  0.75524250  0.67418655  0.12101220     0.01300
H430        H  0.78319491  0.61780057  0.08516286     0.09000
H431        H  0.74545662  0.68695649  0.13933106     0.08100
N432        N  0.77846889  0.66601201  0.98051642    -0.35800
N433        N  0.76778753  0.68881244  0.96505055    -0.28000
C434        C  0.76603415  0.68179718  0.93466131    -0.03200
C435        C  0.77613128  0.65301286  0.93076332     0.02200
C436        C  0.78383336  0.64377854  0.96049264     0.03500
H437        H  0.75652072  0.69602462  0.91719588     0.08600
H438        H  0.79164920  0.62208164  0.96738293     0.07400
N439        N  0.75051950  0.46692030  0.73342662    -0.26900
N440        N  0.74872078  0.46814053  0.70264347    -0.34800
C441        C  0.74626983  0.44030012  0.69144264     0.01400
C442        C  0.74675802  0.42042061  0.71630361     0.07400
C443        C  0.74940167  0.43824105  0.74253756    -0.05700
H444        H  0.74404412  0.43522784  0.66693180     0.08100
H445        H  0.75086850  0.43096560  0.76658081     0.09300
Cu446      Cu  0.75124981  0.50686915  0.67623607     0.44200
Cu447      Cu  0.75502425  0.50364024  0.76240621     0.42000
Cu448      Cu  0.77469099  0.56921241  0.72102237     0.43900
N449        N  0.75976620  0.54815843  0.65658408    -0.34300
N450        N  0.76981495  0.57039768  0.67331418    -0.28600
C451        C  0.77293378  0.59443363  0.65500699    -0.04700
C452        C  0.76417236  0.58725980  0.62522247     0.07500
C453        C  0.75593999  0.55762673  0.62699102     0.01300
H454        H  0.77953612  0.61610538  0.66325619     0.09000
H455        H  0.74741921  0.54409786  0.60841241     0.08100
N456        N  0.77081706  0.56782354  0.76880663    -0.35800
N457        N  0.76270360  0.54398506  0.78440361    -0.28000
C458        C  0.76110447  0.55083167  0.81489356    -0.03200
C459        C  0.76884857  0.58057142  0.81873747     0.05400
C460        C  0.77474251  0.59041879  0.78873297     0.03500
H461        H  0.75445226  0.53516257  0.83253437     0.08600
H462        H  0.78160710  0.61235777  0.78159234     0.07400
C463        C  0.75179479  0.54820632  0.21026162     0.03500
C464        C  0.72653645  0.53271426  0.20728049    -0.12700
C465        C  0.72197795  0.50609006  0.22384479     0.01000
C466        C  0.74300093  0.49538788  0.24400288    -0.11200
C467        C  0.76879884  0.51002928  0.24640542     0.03500
C468        C  0.77277518  0.53676650  0.22981301    -0.10600
H469        H  0.71098747  0.54078493  0.19089541     0.09100
H470        H  0.73927679  0.47555383  0.25784864     0.06600
H471        H  0.79250916  0.54839728  0.23148945     0.06400
C472        C  0.15165344  0.55017806  0.20483102     0.03500
C473        C  0.12976420  0.53863691  0.22276907    -0.12700
C474        C  0.13360499  0.51278982  0.24095151     0.01000
C475        C  0.15964771  0.49832482  0.24056883    -0.11200
C476        C  0.18161768  0.50934216  0.22217101     0.03500
C477        C  0.17743209  0.53549154  0.20468099    -0.10600
H478        H  0.10963486  0.54957404  0.22213563     0.09100
H479        H  0.16276193  0.47842198  0.25457798     0.06600
H480        H  0.19381941  0.54376515  0.18960850     0.06400
N481        N  0.01222982  0.20640735  0.62330453    -0.26900
N482        N  0.00003337  0.20490951  0.65085949    -0.34800
C483        C  0.01908052  0.21083594  0.67316181     0.01400
C484        C  0.04445223  0.21646371  0.65883204     0.07400
C485        C  0.03920394  0.21325234  0.62724853    -0.05700
H486        H  0.01423825  0.21301953  0.69766845     0.08100
H487        H  0.05355319  0.21715503  0.60825306     0.09300
Cu488      Cu  0.95739452  0.19919279  0.65615883     0.44200
Cu489      Cu  0.99162124  0.20531831  0.58098643     0.42000
Cu490      Cu  0.91787550  0.19983369  0.58293254     0.43900
N491        N  0.91424595  0.19697161  0.65339212    -0.34300
N492        N  0.90013677  0.19647803  0.62682422    -0.28600
C493        C  0.87274353  0.19775386  0.63304746    -0.04700
C494        C  0.86928775  0.19919713  0.66506753     0.07500
C495        C  0.89611652  0.19875350  0.67720560     0.01300
H496        H  0.85669332  0.19997983  0.61538378     0.09000
H497        H  0.90211514  0.20106494  0.70143672     0.08100
N498        N  0.93951428  0.21210291  0.54317433    -0.35800
N499        N  0.96696365  0.21404971  0.54248113    -0.28000
C500        C  0.97471637  0.22766055  0.51590185    -0.03200
C501        C  0.95094630  0.23504433  0.49911988     0.05400
C502        C  0.92900100  0.22442951  0.51702258     0.03500
H503        H  0.99586243  0.23444022  0.51073874     0.08600
H504        H  0.90694955  0.22729830  0.51260088     0.07400
N505        N  0.01002645  0.43226407  0.33111266    -0.26900
N506        N  0.99585756  0.45624033  0.32238933    -0.34800
C507        C  0.01320033  0.47535793  0.30801284     0.01400
C508        C  0.03949000  0.46271249  0.30721843     0.07400
C509        C  0.03674782  0.43541720  0.32217220    -0.05700
H510        H  0.00679753  0.49622426  0.29740647     0.08100
H511        H  0.05282784  0.41880654  0.32579299     0.09300
Cu512      Cu  0.95296642  0.46052775  0.32580364     0.44200
Cu513      Cu  0.99208325  0.39545306  0.35287750     0.42000
Cu514      Cu  0.91636003  0.39564174  0.35151468     0.43900
N515        N  0.90998299  0.45656801  0.32344955    -0.34300
N516        N  0.89655470  0.43217173  0.33198596    -0.28600
C517        C  0.86939577  0.43513654  0.32468974    -0.04700
C518        C  0.86549526  0.46291120  0.31113206     0.07500
C519        C  0.89171353  0.47585702  0.31067286     0.01300
H520        H  0.85378069  0.41807782  0.32836306     0.09000
H521        H  0.89741389  0.49698897  0.30024265     0.08100
N522        N  0.94014605  0.36253428  0.37214629    -0.35800
N523        N  0.96770616  0.36217122  0.37291188    -0.28000
C524        C  0.97617590  0.33861509  0.39012189    -0.03200
C525        C  0.95275564  0.32356074  0.40074627     0.05400
C526        C  0.93036294  0.33944391  0.38881820     0.03500
H527        H  0.99770366  0.33391351  0.39597532     0.08600
H528        H  0.90846094  0.33522514  0.39288865     0.07400
C529        C  0.94970097  0.25579828  0.47214158    -0.05100
C530        C  0.97111793  0.25540146  0.44983026    -0.32500
C531        C  0.97200224  0.27670823  0.42581705     0.36700
C532        C  0.95146518  0.29915881  0.42408581    -0.05500
C533        C  0.92968879  0.29901995  0.44587285    -0.32400
C534        C  0.92866152  0.27769180  0.46970163     0.36600
H535        H  0.98739152  0.23865595  0.45119108     0.17000
O536        O  0.99306844  0.27540996  0.40431233    -0.59900
H537        H  0.91388377  0.31629166  0.44531999     0.17000
O538        O  0.90826126  0.28008214  0.49189531    -0.60000
H539        H  0.89105620  0.27243950  0.48179863     0.44000
H540        H  0.98540732  0.26353042  0.38677664     0.43900
C541        C  0.11002855  0.50001844  0.25903666    -0.05100
C542        C  0.10440940  0.46928678  0.25726833    -0.32500
C543        C  0.08176892  0.45677199  0.27314323     0.36700
C544        C  0.06427141  0.47499742  0.29128104    -0.05500
C545        C  0.06992051  0.50563862  0.29324518    -0.32400
C546        C  0.09263992  0.51818363  0.27746569     0.36600
H547        H  0.11723397  0.45498362  0.24288720     0.17000
O548        O  0.07643228  0.42688427  0.26989521    -0.59900
H549        H  0.05680810  0.51990571  0.30734262     0.17000
O550        O  0.09841098  0.54794173  0.28128556    -0.60000
H551        H  0.08318915  0.55874846  0.27028559     0.44000
H552        H  0.06342404  0.42544153  0.25190437     0.43900
C553        C  0.79210808  0.49709650  0.26514906    -0.05100
C554        C  0.80907007  0.51603680  0.28312842    -0.32500
C555        C  0.83285851  0.50516820  0.29841579     0.36700
C556        C  0.83968509  0.47469129  0.29668936    -0.05500
C557        C  0.82223041  0.45545162  0.27981674    -0.32400
C558        C  0.79877949  0.46639786  0.26385742     0.36600
H559        H  0.80409283  0.53953714  0.28504189     0.17000
O560        O  0.84889532  0.52437597  0.31569482    -0.59900
H561        H  0.82743392  0.43200465  0.27784643     0.17000
O562        O  0.78382690  0.44731557  0.24523510    -0.60000
H563        H  0.77352608  0.43410334  0.25980095     0.44000
H564        H  0.85942085  0.53637603  0.30021879     0.43900
C565        C  0.76275844  0.62301445  0.14855650    -0.05100
C566        C  0.78319225  0.60062777  0.15064609    -0.32500
C567        C  0.78043912  0.57685192  0.17152095     0.36700
C568        C  0.75686901  0.57507349  0.19090394    -0.05500
C569        C  0.73700036  0.59813662  0.18994786    -0.32400
C570        C  0.73979049  0.62202515  0.16897617     0.36600
H571        H  0.80108994  0.60100556  0.13529549     0.17000
O572        O  0.79972613  0.55422683  0.17093727    -0.59900
H573        H  0.71881453  0.59712399  0.20485405     0.17000
O574        O  0.71926151  0.64330707  0.16760037    -0.60000
H575        H  0.70507590  0.63526178  0.15297160     0.44000
H576        H  0.81653633  0.56235870  0.18148096     0.43900
C577        C  0.77074305  0.59860691  0.84788872    -0.05100
C578        C  0.77306437  0.62986633  0.84559910    -0.32500
C579        C  0.77566846  0.64768756  0.87214085     0.36700
C580        C  0.77523503  0.63460670  0.90205820    -0.05500
C581        C  0.77322512  0.60342526  0.90451204    -0.32400
C582        C  0.77098779  0.58548508  0.87792461     0.36600
H583        H  0.77292388  0.64091300  0.82313528     0.17000
O584        O  0.77904024  0.67785902  0.86835134    -0.59900
H585        H  0.77291783  0.59270693  0.92718451     0.17000
O586        O  0.76994585  0.55515275  0.88181874    -0.60000
H587        H  0.75057132  0.55081827  0.88850020     0.44000
H588        H  0.79951462  0.68104235  0.86785846     0.43900
C589        C  0.14469598  0.62487788  0.14234966    -0.05100
C590        C  0.12502162  0.60169818  0.14117218    -0.32500
C591        C  0.12626247  0.57786874  0.16228460     0.36700
C592        C  0.14761684  0.57682841  0.18488085    -0.05500
C593        C  0.16676534  0.60045579  0.18672854    -0.32400
C594        C  0.16544590  0.62436681  0.16569447     0.36600
H595        H  0.10904027  0.60162317  0.12322492     0.17000
O596        O  0.10789088  0.55461214  0.15908079    -0.59900
H597        H  0.18333860  0.59988728  0.20398838     0.17000
O598        O  0.18547224  0.64615107  0.16711421    -0.60000
H599        H  0.20073112  0.63908062  0.15341376     0.44000
H600        H  0.09010779  0.56186714  0.16804435     0.43900
C601        C  0.16166229  0.64667433  0.89463095    -0.05100
C602        C  0.18206895  0.65579231  0.87317441    -0.32500
C603        C  0.18688509  0.63946090  0.84594359     0.36700
C604        C  0.17157583  0.61329288  0.84013464    -0.05500
C605        C  0.15084319  0.60444398  0.86110288    -0.32400
C606        C  0.14556166  0.62108285  0.88801363     0.36600
H607        H  0.19481039  0.67523458  0.87778376     0.17000
O608        O  0.20753739  0.64839811  0.82591432    -0.59900
H609        H  0.13830323  0.58487438  0.85628354     0.17000
O610        O  0.12375608  0.61296277  0.90686275    -0.60000
H611        H  0.12957422  0.59398797  0.91692853     0.44000
H612        H  0.19918992  0.66475985  0.81333960     0.43900
C613        C  0.79285940  0.22867812  0.70642363    -0.05100
C614        C  0.79234612  0.20729302  0.68259857    -0.32500
C615        C  0.81714791  0.19606589  0.67023174     0.36700
C616        C  0.84305722  0.20627269  0.68158046    -0.05500
C617        C  0.84354758  0.22564491  0.70725798    -0.32400
C618        C  0.81869516  0.23701051  0.71957162     0.36600
H619        H  0.77268732  0.20047985  0.67231354     0.17000
O620        O  0.81577894  0.17589645  0.64629582    -0.59900
H621        H  0.86320993  0.23338213  0.71674505     0.17000
O622        O  0.81977324  0.25640453  0.74427941    -0.60000
H623        H  0.82835169  0.27495689  0.73599739     0.44000
H624        H  0.81763839  0.15605919  0.65642051     0.43900
C625        C  0.74481503  0.38736270  0.71560024    -0.05100
C626        C  0.73543933  0.37208078  0.74230578    -0.32500
C627        C  0.73397989  0.34095790  0.74291609     0.36700
C628        C  0.74174926  0.32449241  0.71653355    -0.05500
C629        C  0.75100860  0.33947395  0.68976669    -0.32400
C630        C  0.75263442  0.37063735  0.68910926     0.36600
H631        H  0.72913093  0.38421346  0.76289927     0.17000
O632        O  0.72539198  0.32677794  0.76962290    -0.59900
H633        H  0.75726412  0.32690347  0.66939584     0.17000
O634        O  0.76251506  0.38426134  0.66268835    -0.60000
H635        H  0.78300234  0.38528410  0.66559744     0.44000
H636        H  0.74279078  0.32195214  0.78120731     0.43900
C637        C  0.12042542  0.25151671  0.69775653    -0.05100
C638        C  0.10381880  0.23232106  0.71572717    -0.32500
C639        C  0.07877502  0.22090678  0.70365215     0.36700
C640        C  0.07040910  0.22828142  0.67297028    -0.05500
C641        C  0.08729989  0.24736286  0.65510751    -0.32400
C642        C  0.11209413  0.25878670  0.66716010     0.36600
H643        H  0.11028075  0.22620932  0.73915127     0.17000
O644        O  0.06338319  0.20153953  0.72145505    -0.59900
H645        H  0.08129729  0.25368845  0.63162194     0.17000
O646        O  0.12833818  0.27666007  0.64857646    -0.60000
H647        H  0.14216286  0.26302443  0.63898433     0.44000
H648        H  0.05395177  0.21417307  0.73718242     0.43900
C649        C  0.19276868  0.39956423  0.71317962    -0.05100
C650        C  0.17987434  0.38493349  0.68802832    -0.32500
C651        C  0.17621314  0.35398944  0.68829518     0.36700
C652        C  0.18515164  0.33696841  0.71420816    -0.05500
C653        C  0.19925238  0.35132605  0.73867505    -0.32400
C654        C  0.20324870  0.38228540  0.73822984     0.36600
H655        H  0.17186473  0.39751962  0.66833277     0.17000
O656        O  0.16365860  0.34065551  0.66314058    -0.59900
H657        H  0.20667033  0.33857506  0.75857463     0.17000
O658        O  0.21734670  0.39532196  0.76249354    -0.60000
H659        H  0.23701933  0.39656088  0.75550597     0.44000
H660        H  0.17921775  0.33375075  0.64978898     0.43900
C661        C  0.16174131  0.66028671  0.54444975    -0.05100
C662        C  0.18093238  0.63671565  0.54266407    -0.32500
C663        C  0.18127092  0.61422446  0.56541537     0.36700
C664        C  0.16236064  0.61540139  0.59043966    -0.05500
C665        C  0.14234646  0.63826149  0.59130925    -0.32400
C666        C  0.14193165  0.66060697  0.56854465     0.36600
H667        H  0.19640018  0.63645757  0.52429353     0.17000
O668        O  0.20130536  0.59241780  0.56407828    -0.59900
H669        H  0.12769918  0.63948252  0.61046358     0.17000
O670        O  0.12315780  0.68358699  0.57105528    -0.60000
H671        H  0.13295823  0.69921832  0.58322068     0.44000
H672        H  0.21742399  0.60044309  0.57593909     0.43900
C673        C  0.06900172  0.75081437  0.44112821    -0.05100
C674        C  0.08613101  0.77146856  0.45653926    -0.32500
C675        C  0.11116311  0.76261220  0.47059178     0.36700
C676        C  0.11981170  0.73255125  0.46899589    -0.05500
C677        C  0.10309460  0.71208964  0.45251399    -0.32400
C678        C  0.07771644  0.72093158  0.43899986     0.36600
H679        H  0.07956595  0.79448284  0.45888216     0.17000
O680        O  0.12579146  0.78304762  0.48791012    -0.59900
H681        H  0.10948972  0.68898744  0.45053899     0.17000
O682        O  0.06198185  0.70041517  0.42308620    -0.60000
H683        H  0.05273284  0.68824311  0.43942129     0.44000
H684        H  0.13441965  0.79675449  0.47248971     0.43900
C685        C  0.95556682  0.96797547  0.27309844    -0.05100
C686        C  0.93246585  0.96612759  0.29306368    -0.32500
C687        C  0.93130835  0.94465953  0.31686810     0.36700
C688        C  0.95357346  0.92447491  0.32112340    -0.05500
C689        C  0.97687351  0.92668441  0.30145431    -0.32400
C690        C  0.97806513  0.94814428  0.27773578     0.36600
H691        H  0.91513039  0.98142806  0.29025196     0.17000
O692        O  0.90874239  0.94432988  0.33643619    -0.59900
H693        H  0.99406338  0.91114999  0.30371458     0.17000
O694        O  0.00053785  0.94810890  0.25803767    -0.60000
H695        H  0.01597340  0.95730286  0.27011692     0.44000
H696        H  0.89313381  0.93617066  0.32382590     0.43900
C697        C  0.84098494  0.02317338  0.06943797    -0.05100
C698        C  0.81523626  0.02952827  0.08343298    -0.32500
C699        C  0.79032445  0.01882059  0.07069476     0.36700
C700        C  0.79083465  0.00123816  0.04352703    -0.05500
C701        C  0.81640242  0.99576201  0.02879980    -0.32400
C702        C  0.84137209  0.00661967  0.04148033     0.36600
H703        H  0.81444399  0.04213892  0.10493320     0.17000
O704        O  0.76583776  0.02358147  0.08640358    -0.59900
H705        H  0.81708236  0.98217358  0.00795348     0.17000
O706        O  0.86603072  0.99945481  0.02725230    -0.60000
H707        H  0.87198078  0.98034332  0.03698650     0.44000
H708        H  0.76029781  0.04429813  0.08113132     0.43900
C709        C  0.73764768  0.84367351  0.02831515    -0.05100
C710        C  0.75002050  0.85981058  0.05272356    -0.32500
C711        C  0.75048731  0.89098800  0.05223230     0.36700
C712        C  0.73854831  0.90673606  0.02696871    -0.05500
C713        C  0.72542541  0.89072197  0.00298793    -0.32400
C714        C  0.72505290  0.85943583  0.00338922     0.36600
H715        H  0.75982296  0.84825677  0.07210943     0.17000
O716        O  0.76251275  0.90585857  0.07674932    -0.59900
H717        H  0.71573084  0.90250644  0.98366204     0.17000
O718        O  0.71139059  0.84455569  0.97996409    -0.60000
H719        H  0.72339550  0.84675460  0.96128754     0.44000
H720        H  0.74685724  0.91095252  0.09082032     0.43900
C721        C  0.06952157  0.03168436  0.07644369    -0.05100
C722        C  0.06869326  0.01461402  0.04898377    -0.32500
C723        C  0.09310934  0.00230696  0.03658143     0.36700
C724        C  0.11893098  0.00758100  0.05120474    -0.05500
C725        C  0.12004168  0.02612200  0.07745498    -0.32400
C726        C  0.09561289  0.03792632  0.09029178     0.36600
H727        H  0.04896644  0.00954703  0.03783525     0.17000
O728        O  0.09161270  0.98532855  0.01005553    -0.59900
H729        H  0.13985821  0.03057337  0.08876326     0.17000
O730        O  0.09749768  0.05585077  0.11611178    -0.60000
H731        H  0.10325146  0.04246940  0.13348689     0.44000
H732        H  0.08421627  0.96572288  0.01692841     0.43900
C733        C  0.17359713  0.91347705  0.03631931    -0.05100
C734        C  0.18811569  0.89838958  0.01275335    -0.32500
C735        C  0.19032096  0.86730346  0.01297675     0.36700
C736        C  0.17723910  0.85043596  0.03662453    -0.05500
C737        C  0.16355691  0.86553110  0.06083326    -0.32400
C738        C  0.16185771  0.89674149  0.06094833     0.36600
H739        H  0.19764117  0.91075078  0.99381433     0.17000
O740        O  0.20546286  0.85375060  0.98993776    -0.59900
H741        H  0.15360465  0.85315033  0.07945633     0.17000
O742        O  0.14879280  0.91059702  0.08535090    -0.60000
H743        H  0.16385661  0.91519683  0.10051019     0.44000
H744        H  0.22429643  0.85063670  0.99904980     0.43900
C745        C  0.79076422  0.72903156  0.47847466    -0.05100
C746        C  0.80679854  0.70978385  0.45989749    -0.32500
C747        C  0.83112048  0.71989896  0.44520812     0.36700
C748        C  0.83951786  0.74980169  0.44855433    -0.05500
C749        C  0.82308877  0.76924493  0.46631743    -0.32400
C750        C  0.79905260  0.75910307  0.48139492     0.36600
H751        H  0.80062784  0.68669844  0.45706250     0.17000
O752        O  0.84605076  0.70066381  0.42687202    -0.59900
H753        H  0.82946093  0.79222238  0.46952901     0.17000
O754        O  0.78502940  0.77820487  0.50078423    -0.60000
H755        H  0.77502203  0.79227829  0.48675684     0.44000
H756        H  0.85644652  0.68768255  0.44165662     0.43900
C757        C  0.76166451  0.60858657  0.59898080    -0.05100
C758        C  0.78157235  0.63137273  0.59634654    -0.32500
C759        C  0.77803412  0.65463176  0.57497025     0.36700
C760        C  0.75429849  0.65539083  0.55550530    -0.05500
C761        C  0.73478957  0.63209414  0.55730932    -0.32400
C762        C  0.73837936  0.60869771  0.57877933     0.36600
H763        H  0.79963595  0.63164269  0.61161744     0.17000
O764        O  0.79734970  0.67719110  0.57424359    -0.59900
H765        H  0.71646289  0.63237327  0.54243735     0.17000
O766        O  0.71838259  0.58692119  0.58074517    -0.60000
H767        H  0.70480211  0.59432067  0.59630603     0.44000
H768        H  0.79023437  0.69247844  0.58887367     0.43900
C769        C  0.24555516  0.11166208  0.39951874    -0.05100
C770        C  0.23917492  0.09871592  0.37056797    -0.32500
C771        C  0.24263494  0.11464612  0.34275123     0.36700
C772        C  0.25294355  0.14408710  0.34336395    -0.05500
C773        C  0.25871809  0.15736773  0.37219511    -0.32400
C774        C  0.25520004  0.14150443  0.40009786     0.36600
H775        H  0.23115801  0.07617731  0.36934707     0.17000
O776        O  0.23547824  0.10124078  0.31515306    -0.59900
H777        H  0.26683495  0.17990485  0.37313696     0.17000
O778        O  0.26284132  0.15496439  0.42749488    -0.60000
H779        H  0.24787045  0.16965833  0.43185730     0.44000
H780        H  0.21587177  0.10727003  0.31118601     0.43900
C781        C  0.23193387  0.41262252  0.20790466    -0.05100
C782        C  0.24142541  0.39899136  0.18052990    -0.32500
C783        C  0.24439368  0.36796821  0.17889306     0.36700
C784        C  0.23791139  0.35004796  0.20508743    -0.05500
C785        C  0.22720871  0.36390865  0.23194308    -0.32400
C786        C  0.22422117  0.39485715  0.23346054     0.36600
H787        H  0.24726806  0.41256488  0.16061912     0.17000
O788        O  0.25457119  0.35575382  0.15196520    -0.59900
H789        H  0.22152389  0.35086654  0.25223566     0.17000
O790        O  0.21555832  0.40768490  0.26078027    -0.60000
H791        H  0.19490915  0.40662233  0.26017321     0.44000
H792        H  0.27512648  0.35610391  0.15436302     0.43900
C793        C  0.26674231  0.12559460  0.09810919    -0.05100
C794        C  0.28406733  0.10031607  0.09823963    -0.32500
C795        C  0.27965060  0.07703815  0.07722232     0.36700
C796        C  0.25735699  0.07859305  0.05585450    -0.05500
C797        C  0.24033036  0.10404378  0.05517929    -0.32400
C798        C  0.24506231  0.12764443  0.07587362     0.36600
H799        H  0.30082608  0.09829343  0.11514973     0.17000
O800        O  0.29602624  0.05197028  0.07914669    -0.59900
H801        H  0.22303714  0.10538253  0.03887596     0.17000
O802        O  0.22714152  0.15149367  0.07562811    -0.60000
H803        H  0.23333745  0.16420658  0.05798682     0.44000
H804        H  0.31381802  0.05746304  0.06888580     0.43900
C805        C  0.33691449  0.52766162  0.17995722    -0.05100
C806        C  0.31202374  0.53994510  0.16829292    -0.32500
C807        C  0.28612167  0.53021156  0.17930434     0.36700
C808        C  0.28486070  0.50749601  0.20207864    -0.05500
C809        C  0.30979837  0.49661266  0.21516097    -0.32400
C810        C  0.33567622  0.50636374  0.20419122     0.36600
H811        H  0.31262999  0.55628835  0.14960902     0.17000
O812        O  0.26226824  0.54099227  0.16553474    -0.59900
H813        H  0.30920408  0.47924523  0.23281103     0.17000
O814        O  0.35944803  0.49326539  0.21573598    -0.60000
H815        H  0.36272599  0.47564561  0.20225898     0.44000
H816        H  0.25908632  0.56075691  0.17520966     0.43900
C817        C  0.44795515  0.46832673  0.97611567    -0.05100
C818        C  0.46936048  0.47033840  0.95393888    -0.32500
C819        C  0.47049950  0.45060709  0.92873892     0.36700
C820        C  0.45019858  0.42810517  0.92554575    -0.05500
C821        C  0.42864764  0.42624454  0.94757287    -0.32400
C822        C  0.42753238  0.44591469  0.97281115     0.36600
H823        H  0.48520900  0.48744143  0.95602893     0.17000
O824        O  0.49138271  0.45378909  0.90721179    -0.59900
H825        H  0.41302437  0.40887932  0.94581241     0.17000
O826        O  0.40699079  0.44221217  0.99466169    -0.60000
H827        H  0.41529592  0.42905180  0.01092821     0.44000
H828        H  0.48318628  0.46610800  0.89022634     0.43900
C829        C  0.33614799  0.97544256  0.95212716    -0.05100
C830        C  0.33124248  0.00612384  0.94858233    -0.32500
C831        C  0.30762700  0.01943182  0.96162667     0.36700
C832        C  0.28887883  0.00215703  0.97943275    -0.05500
C833        C  0.29338574  0.97126493  0.98203247    -0.32400
C834        C  0.31658982  0.95783792  0.96829990     0.36600
H835        H  0.34589363  0.01987886  0.93580695     0.17000
O836        O  0.30333489  0.04940909  0.95721670    -0.59900
H837        H  0.27956093  0.95756310  0.99596555     0.17000
O838        O  0.32111767  0.92794994  0.97311148    -0.60000
H839        H  0.30821419  0.91767535  0.95852994     0.44000
H840        H  0.29102806  0.05088882  0.93861721     0.43900
C841        C  0.45485777  0.76443007  0.78209421    -0.05100
C842        C  0.43356863  0.76154759  0.80430812    -0.32500
C843        C  0.43319098  0.77959721  0.83089839     0.36700
C844        C  0.45425173  0.80106465  0.83550712    -0.05500
C845        C  0.47565253  0.80371649  0.81345629    -0.32400
C846        C  0.47590931  0.78594498  0.78678958     0.36600
H847        H  0.41718946  0.74519369  0.80108114     0.17000
O848        O  0.41214833  0.77605206  0.85217536    -0.59900
H849        H  0.49168831  0.82053186  0.81614131     0.17000
O850        O  0.49615729  0.79086467  0.76485746    -0.60000
H851        H  0.48791292  0.80551288  0.75001355     0.44000
H852        H  0.41965628  0.76199497  0.86804106     0.43900
C853        C  0.24469047  0.16006416  0.69522282    -0.05100
C854        C  0.26483196  0.15963004  0.67164128    -0.32500
C855        C  0.26392547  0.13795297  0.64833711     0.36700
C856        C  0.24305906  0.11585269  0.64886951    -0.05500
C857        C  0.22411093  0.11495919  0.67369738    -0.32400
C858        C  0.22468066  0.13709323  0.69670072     0.36600
H859        H  0.28040238  0.17710292  0.67030791     0.17000
O860        O  0.28344103  0.13855800  0.62498369    -0.59900
H861        H  0.20792014  0.09811394  0.67428312     0.17000
O862        O  0.20494556  0.13682029  0.71977815    -0.60000
H863        H  0.21412736  0.12698280  0.73786617     0.44000
H864        H  0.27834820  0.15585862  0.61162125     0.43900
C865        C  0.29179520  0.23478093  0.76346539    -0.05100
C866        C  0.29897163  0.26454973  0.75696041    -0.32500
C867        C  0.32327386  0.27705053  0.76913398     0.36700
C868        C  0.34101467  0.25976084  0.78812807    -0.05500
C869        C  0.33419177  0.22990750  0.79441704    -0.32400
C870        C  0.30966814  0.21736333  0.78232753     0.36600
H871        H  0.28588872  0.27811321  0.74187190     0.17000
O872        O  0.32983065  0.30598950  0.76165982    -0.59900
H873        H  0.34767609  0.21644446  0.80914939     0.17000
O874        O  0.30271950  0.18861091  0.79017891    -0.60000
H875        H  0.31597246  0.17578278  0.77864857     0.44000
H876        H  0.34108887  0.30467933  0.74234233     0.43900
C877        C  0.22957981  0.83365980  0.52626884    -0.05100
C878        C  0.23907790  0.84877247  0.55292010    -0.32500
C879        C  0.23889622  0.87993264  0.55422132     0.36700
C880        C  0.22863287  0.89671121  0.52871699    -0.05500
C881        C  0.21830942  0.88150950  0.50245002    -0.32400
C882        C  0.21860925  0.85028119  0.50114270     0.36600
H883        H  0.24742516  0.83633692  0.57258452     0.17000
O884        O  0.24991646  0.89360122  0.58004134    -0.59900
H885        H  0.21019765  0.89384149  0.48262075     0.17000
O886        O  0.20982382  0.83633290  0.47441988    -0.60000
H887        H  0.18915547  0.83668967  0.47533115     0.44000
H888        H  0.27010288  0.89576532  0.57560628     0.43900
C889        C  0.28979029  0.74492963  0.54386870    -0.05100
C890        C  0.28879099  0.72462692  0.56884012    -0.32500
C891        C  0.31330066  0.71482013  0.58337795     0.36700
C892        C  0.33937944  0.72507262  0.57276592    -0.05500
C893        C  0.34042500  0.74434232  0.54688871    -0.32400
C894        C  0.31585233  0.75461570  0.53271820     0.36600
H895        H  0.26886785  0.71714702  0.57780411     0.17000
O896        O  0.31148538  0.69551296  0.60818827    -0.59900
H897        H  0.36028154  0.75243627  0.53836749     0.17000
O898        O  0.31744434  0.77388606  0.50782621    -0.60000
H899        H  0.32308872  0.79336297  0.51680193     0.44000
H900        H  0.31304590  0.67531107  0.59900346     0.43900
C901        C  0.61968704  0.73747111  0.54800999    -0.05100
C902        C  0.61933320  0.71971834  0.57500046    -0.32500
C903        C  0.59410074  0.71125401  0.58866388     0.36700
C904        C  0.56854935  0.72049364  0.57530966    -0.05500
C905        C  0.56892435  0.73689042  0.54730287    -0.32400
C906        C  0.59424120  0.74565011  0.53382558     0.36600
H907        H  0.63873922  0.71334602  0.58624191     0.17000
O908        O  0.59475588  0.69430260  0.61535556    -0.59900
H909        H  0.54959510  0.74404439  0.53645885     0.17000
O910        O  0.59399451  0.76209454  0.50674249    -0.60000
H911        H  0.58769221  0.78233965  0.51284219     0.44000
H912        H  0.59298374  0.67338664  0.60819050     0.43900
C913        C  0.67919310  0.82664495  0.53086974    -0.05100
C914        C  0.66691975  0.84237286  0.55556359    -0.32500
C915        C  0.66771648  0.87349367  0.55663147     0.36700
C916        C  0.68155829  0.88969473  0.53307947    -0.05500
C917        C  0.69429666  0.87399181  0.50860281    -0.32400
C918        C  0.69329591  0.84272693  0.50741551     0.36600
H919        H  0.65615640  0.83046546  0.57397579     0.17000
O920        O  0.65380927  0.88775370  0.58016448    -0.59900
H921        H  0.70484584  0.88598903  0.49010535     0.17000
O922        O  0.70468063  0.82826856  0.48232616    -0.60000
H923        H  0.72514967  0.82899803  0.48571662     0.44000
H924        H  0.63486243  0.89174164  0.57171856     0.43900
C925        C  0.68533615  0.13609078  0.35052973    -0.05100
C926        C  0.66546770  0.14689249  0.37161397    -0.32500
C927        C  0.65783992  0.13013223  0.39786582     0.36700
C928        C  0.67030608  0.10203747  0.40346187    -0.05500
C929        C  0.69070141  0.09172128  0.38266714    -0.32400
C930        C  0.69811264  0.10834591  0.35636019     0.36600
H931        H  0.65506603  0.16796915  0.36723856     0.17000
O932        O  0.63713819  0.14076786  0.41682162    -0.59900
H933        H  0.70128716  0.07073616  0.38678078     0.17000
O934        O  0.71864949  0.09776728  0.33710780    -0.60000
H935        H  0.71025213  0.08053242  0.32606370     0.44000
H936        H  0.64578320  0.15733547  0.42873467     0.43900
C937        C  0.67472425  0.40689370  0.21480108    -0.05100
C938        C  0.65977684  0.39042971  0.19244158    -0.32500
C939        C  0.66079763  0.35922995  0.19222584     0.36700
C940        C  0.67738629  0.34388930  0.21426273    -0.05500
C941        C  0.69217084  0.36032064  0.23670444    -0.32400
C942        C  0.69095321  0.39148024  0.23715109     0.36600
H943        H  0.64722681  0.40177917  0.17498825     0.17000
O944        O  0.64493767  0.34405289  0.17085315    -0.59900
H945        H  0.70485463  0.34902332  0.25406376     0.17000
O946        O  0.70454892  0.40656980  0.26050758    -0.60000
H947        H  0.72473074  0.40429781  0.25601379     0.44000
H948        H  0.62713754  0.33965635  0.18168116     0.43900
C949        C  0.56717256  0.51947749  0.17700362    -0.05100
C950        C  0.59167917  0.52536197  0.16013130    -0.32500
C951        C  0.61763826  0.51565705  0.17102927     0.36700
C952        C  0.61958257  0.50008747  0.19947012    -0.05500
C953        C  0.59546425  0.49544146  0.21722641    -0.32400
C954        C  0.56939161  0.50526954  0.20640123     0.36600
H955        H  0.59069756  0.53668918  0.13779014     0.17000
O956        O  0.64079663  0.52008052  0.15288091    -0.59900
H957        H  0.59674902  0.48326709  0.23908249     0.17000
O958        O  0.54616670  0.49879496  0.22368232    -0.60000
H959        H  0.54557918  0.51431723  0.24014480     0.44000
H960        H  0.64211050  0.50207519  0.13955620     0.43900
C961        C  0.65779691  0.07169782  0.06360674    -0.05100
C962        C  0.64429823  0.06878844  0.09235882    -0.32500
C963        C  0.64609623  0.09149585  0.11452836     0.36700
C964        C  0.66137642  0.11762193  0.10789746    -0.05500
C965        C  0.67310390  0.12142865  0.07823218    -0.32400
C966        C  0.67174066  0.09841814  0.05626392     0.36600
H967        H  0.63352949  0.04827017  0.09818984     0.17000
O968        O  0.63370679  0.08749460  0.14303583    -0.59900
H969        H  0.68484265  0.14142146  0.07280250     0.17000
O970        O  0.68463078  0.10187225  0.02796158    -0.60000
H971        H  0.70430557  0.09591947  0.03159634     0.44000
H972        H  0.61497035  0.09669116  0.14093084     0.43900
C973        C  0.56394901  0.97313731  0.96751503    -0.05100
C974        C  0.58355579  0.95395130  0.98142663    -0.32500
C975        C  0.60815764  0.96507179  0.99458490     0.36700
C976        C  0.61371146  0.99598136  0.99370593    -0.05500
C977        C  0.59430596  0.01511030  0.97926156    -0.32400
C978        C  0.56950290  0.00398989  0.96649054     0.36600
H979        H  0.57946912  0.93022792  0.98300192     0.17000
O980        O  0.62570311  0.94576928  0.01002321    -0.59900
H981        H  0.59835620  0.03885658  0.97786720     0.17000
O982        O  0.55139093  0.02333678  0.95202193    -0.60000
H983        H  0.54219419  0.03441928  0.96915506     0.44000
H984        H  0.63458964  0.93358512  0.99351085     0.43900
C985        C  0.65579684  0.16009176  0.68897887    -0.05100
C986        C  0.67355888  0.13532139  0.69198380    -0.32500
C987        C  0.67152203  0.11121135  0.67130447     0.36700
C988        C  0.65176226  0.11196515  0.64682470    -0.05500
C989        C  0.63332492  0.13632180  0.64479216    -0.32400
C990        C  0.63536605  0.16028171  0.66534796     0.36600
H991        H  0.68945462  0.13498285  0.71002459     0.17000
O992        O  0.69016623  0.08815011  0.67402933    -0.59900
H993        H  0.61765693  0.13731387  0.62654962     0.17000
O994        O  0.61809387  0.18441198  0.66120575    -0.60000
H995        H  0.62855343  0.19830086  0.64746822     0.44000
H996        H  0.68258063  0.07515645  0.69075317     0.43900
C997        C  0.61528705  0.24024425  0.75538696    -0.05100
C998        C  0.58991040  0.24012932  0.73883769    -0.32500
C999        C  0.56562968  0.25196026  0.75185989     0.36700
C1000       C  0.56646333  0.26496905  0.78169598    -0.05500
C1001       C  0.59193080  0.26613678  0.79789868    -0.32400
C1002       C  0.61613424  0.25355278  0.78519872     0.36600
H1003       H  0.58883954  0.23084382  0.71555428     0.17000
O1004       O  0.54144336  0.25189102  0.73463427    -0.59900
H1005       H  0.59287419  0.27598702  0.82092978     0.17000
O1006       O  0.64023773  0.25371780  0.80252297    -0.60000
H1007       H  0.64074885  0.23408442  0.81321091     0.44000
H1008       H  0.53488286  0.23090666  0.73491477     0.43900
loop_ 
_geom_bond_atom_site_label_1 
_geom_bond_atom_site_label_2 
_geom_bond_distance 
_geom_bond_site_symmetry_2 
_ccdc_geom_bond_type 
C1            C2   1.399       .  A
C1            C6   1.400       .  A
C1          C985   1.479       .  S
C2            C3   1.404       .  A
C2            H7   1.084       .  S
C3            C4   1.407       .  A
C3          C997   1.490       .  S
C4            C5   1.411       .  A
C4            H8   1.081       .  S
C5            C6   1.407       .  A
C5          C360   1.493       .  S
C6            H9   1.083       .  S
C10          C11   1.398       .  A
C10          C15   1.398       .  A
C10         C961   1.472       .  S
C11          C12   1.406       .  A
C11          H16   1.083       .  S
C12          C13   1.406   1_545  A
C12         C285   1.491   1_545  S
C13          C14   1.407   1_565  A
C13          H17   1.082   1_554  S
C14          C15   1.406       .  A
C14         C976   1.485   1_544  S
C15          H18   1.084       .  S
C19          C20   1.403       .  A
C19          C24   1.402       .  A
C19         C937   1.485       .  S
C20          C21   1.405       .  A
C20          H25   1.082       .  S
C21          C22   1.407       .  A
C21         C465   1.487       .  S
C22          C23   1.403       .  A
C22          H26   1.083       .  S
C23          C24   1.401       .  A
C23         C952   1.475       .  S
C24          H27   1.084       .  S
N28          N29   1.324       .  A
N28          C32   1.344       .  A
N28         Cu36   2.068   1_565  S
N29          C30   1.345       .  A
N29         Cu35   2.088   1_565  S
C30          C31   1.388       .  A
C30          H33   1.081       .  S
C31          C32   1.383       .  A
C31         C916   1.483       .  S
C32          H34   1.082       .  S
Cu35         N38   2.086       .  S
Cu36         N46   2.066       .  S
Cu37         N39   2.048       .  S
Cu37         N45   2.048       .  S
N38          N39   1.320       .  A
N38          C42   1.350       .  A
N39          C40   1.337       .  A
C40          C41   1.381       .  A
C40          H43   1.082       .  S
C41          C42   1.393       .  A
C41         C988   1.484       .  S
C42          H44   1.081       .  S
N45          N46   1.318       .  A
N45          C49   1.341       .  A
N46          C47   1.342       .  A
C47          C48   1.390       .  A
C47          H50   1.081       .  S
C48          C49   1.385       .  A
C48         C928   1.483       .  S
C49          H51   1.080       .  S
N52          N53   1.323       .  A
N52          C56   1.341       .  A
N52         Cu60   2.065       .  S
N53          C54   1.346       .  A
N53         Cu59   2.082       .  S
C54          C55   1.387       .  A
C54          H57   1.081       .  S
C55          C56   1.382       .  A
C55         C940   1.480       .  S
C56          H58   1.082       .  S
Cu59         N62   2.081       .  S
Cu60         N70   2.064       .  S
Cu61         N63   2.050       .  S
Cu61         N69   2.049       .  S
N62          N63   1.321       .  A
N62          C66   1.349       .  A
N63          C64   1.339       .  A
C64          C65   1.378       .  A
C64          H67   1.082       .  S
C65          C66   1.387       .  A
C65         C964   1.473       .  S
C66          H68   1.082       .  S
N69          N70   1.318       .  A
N69          C73   1.339       .  A
N70          C71   1.345       .  A
C71          C72   1.387       .  A
C71          H74   1.082       .  S
C72          C73   1.382       .  A
C72         C925   1.476       .  S
C73          H75   1.081       .  S
C76          C77   1.401       .  A
C76          C81   1.403       .  A
C76         C913   1.486       .  S
C77          C78   1.400       .  A
C77          H82   1.084       .  S
C78          C79   1.404       .  A
C78         C901   1.480       .  S
C79          C80   1.409       .  A
C79          H83   1.083       .  S
C80          C81   1.410       .  A
C80         C269   1.491       .  S
C81          H84   1.082       .  S
C85          C86   1.405       .  A
C85          C90   1.401       .  A
C85         C877   1.483       .  S
C86          C87   1.410       .  A
C86          H91   1.083       .  S
C87          C88   1.408       .  A
C87         C344   1.490       .  S
C88          C89   1.401       .  A
C88          H92   1.083       .  S
C89          C90   1.398       .  A
C89         C889   1.478       .  S
C90          H93   1.084       .  S
C94          C95   1.401       .  A
C94          C99   1.402       .  A
C94         C853   1.476       .  S
C95          C96   1.403       .  A
C95         H100   1.083       .  S
C96          C97   1.403       .  A
C96         C865   1.481       .  S
C97          C98   1.403       .  A
C97         H101   1.083       .  S
C98          C99   1.407       .  A
C98         C353   1.490       .  S
C99         H102   1.083       .  S
N103        N104   1.321       .  A
N103        C107   1.342       .  A
N103       Cu111   2.066       .  S
N104        C105   1.344       .  A
N104       Cu110   2.071       .  S
C105        C106   1.386       .  A
C105        H108   1.081       .  S
C106        C107   1.384       .  A
C106        C973   1.479       .  S
C107        H109   1.082       .  S
Cu110       N113   2.071       .  S
Cu111       N121   2.066       .  S
Cu112       N114   2.061       .  S
Cu112       N120   2.060       .  S
N113        N114   1.321       .  A
N113        C117   1.344       .  A
N114        C115   1.342       .  A
C115        C116   1.383       .  A
C115        H118   1.081       .  S
C116        C117   1.384       .  A
C116        C829   1.475       .  S
C117        H119   1.082       .  S
N120        N121   1.320       .  A
N120        C124   1.343       .  A
N121        C122   1.343       .  A
C122        C123   1.385       .  A
C122        H125   1.082       .  S
C123        C124   1.384       .  A
C123        C844   1.477       .  S
C124        H126   1.082       .  S
N127        N128   1.323       .  A
N127        C131   1.343       .  A
N127       Cu135   2.068       .  S
N128        C129   1.345       .  A
N128       Cu134   2.076       .  S
C129        C130   1.384       .  A
C129        H132   1.082       .  S
C130        C131   1.383       .  A
C130        C892   1.477       .  S
C131        H133   1.082       .  S
Cu134       N137   2.076       .  S
Cu135       N145   2.066       .  S
Cu136       N138   2.063       .  S
Cu136       N144   2.062       .  S
N137        N138   1.321       .  A
N137        C141   1.346       .  A
N138        C139   1.342       .  A
C139        C140   1.384       .  A
C139        H142   1.081       .  S
C140        C141   1.388       .  A
C140        C904   1.482       .  S
C141        H143   1.082       .  S
N144        N145   1.320       .  A
N144        C148   1.342       .  A
N145        C146   1.345       .  A
C146        C147   1.385       .  A
C146        H149   1.082       .  S
C147        C148   1.384       .  A
C147        C841   1.479       .  S
C148        H150   1.081       .  S
N151        N152   1.323       .  A
N151        C155   1.342       .  A
N151       Cu159   2.070       .  S
N152        C153   1.345       .  A
N152       Cu158   2.075       .  S
C153        C154   1.385       .  A
C153        H156   1.082       .  S
C154        C155   1.383       .  A
C154        C805   1.477       .  S
C155        H157   1.082       .  S
Cu158       N161   2.075       .  S
Cu159       N169   2.070       .  S
Cu160       N162   2.064       .  S
Cu160       N168   2.063       .  S
N161        N162   1.321       .  A
N161        C165   1.347       .  A
N162        C163   1.340       .  A
C163        C164   1.385       .  A
C163        H166   1.082       .  S
C164        C165   1.390       .  A
C164        C949   1.485       .  S
C165        H167   1.081       .  S
N168        N169   1.320       .  A
N168        C172   1.343       .  A
N169        C170   1.345       .  A
C170        C171   1.387       .  A
C170        H173   1.081       .  S
C171        C172   1.384       .  A
C171        C817   1.480   1_554  S
C172        H174   1.082       .  S
N175        N176   1.321       .  A
N175        C179   1.342       .  A
N175       Cu183   2.063       .  S
N176        C177   1.344       .  A
N176       Cu182   2.064       .  S
C177        C178   1.381       .  A
C177        H180   1.082       .  S
C178        C179   1.382       .  A
C178        C868   1.471       .  S
C179        H181   1.082       .  S
Cu182       N185   2.066       .  S
Cu183       N193   2.064       .  S
Cu184       N186   2.079       .  S
Cu184       N192   2.079       .  S
N185        N186   1.322       .  A
N185        C189   1.342       .  A
N186        C187   1.347       .  A
C187        C188   1.385       .  A
C187        H190   1.082       .  S
C188        C189   1.383       .  A
C188       C1000   1.478       .  S
C189        H191   1.082       .  S
N192        N193   1.322       .  A
N192        C196   1.345       .  A
N193        C194   1.343       .  A
C194        C195   1.383       .  A
C194        H197   1.082       .  S
C195        C196   1.387       .  A
C195        C820   1.480       .  S
C196        H198   1.082       .  S
C199        C200   1.401       .  A
C199        C204   1.399       .  A
C199        C796   1.475       .  S
C200        C201   1.405       .  A
C200        H205   1.083       .  S
C201        C202   1.407       .  A
C201        C276   1.487   1_545  S
C202        C203   1.405   1_554  A
C202        H206   1.083   1_544  S
C203        C204   1.403   1_556  A
C203        C832   1.485       .  S
C204        H207   1.083       .  S
C208        C209   1.399       .  A
C208        C213   1.397       .  A
C208        C781   1.473       .  S
C209        C210   1.406       .  A
C209        H214   1.083       .  S
C210        C211   1.410       .  A
C210        C476   1.485       .  S
C211        C212   1.404       .  A
C211        H215   1.083       .  S
C212        C213   1.401       .  A
C212        C808   1.482       .  S
C213        H216   1.084       .  S
N217        N218   1.325       .  A
N217        C221   1.344       .  A
N217       Cu225   2.083   1_565  S
N218        C219   1.344       .  A
N218       Cu224   2.080   1_565  S
C219        C220   1.386       .  A
C219        H222   1.081       .  S
C220        C221   1.385       .  A
C220        C880   1.484       .  S
C221        H223   1.082       .  S
Cu224       N227   2.078       .  S
Cu225       N235   2.081       .  S
Cu226       N228   2.043       .  S
Cu226       N234   2.043       .  S
N227        N228   1.320       .  A
N227        C231   1.349       .  A
N228        C229   1.337       .  A
C229        C230   1.377       .  A
C229        H232   1.082       .  S
C230        C231   1.387       .  A
C230        C856   1.471       .  S
C231        H233   1.082       .  S
N234        N235   1.318       .  A
N234        C238   1.339       .  A
N235        C236   1.346       .  A
C236        C237   1.394       .  A
C236        H239   1.082       .  S
C237        C238   1.384       .  A
C237        C769   1.487       .  S
C238        H240   1.079       .  S
N241        N242   1.322       .  A
N241        C245   1.340       .  A
N241       Cu249   2.068       .  S
N242        C243   1.346       .  A
N242       Cu248   2.078       .  S
C243        C244   1.389       .  A
C243        H246   1.080       .  S
C244        C245   1.385       .  A
C244        C784   1.486       .  S
C245        H247   1.081       .  S
Cu248       N251   2.077       .  S
Cu249       N259   2.067       .  S
Cu250       N252   2.055       .  S
Cu250       N258   2.054       .  S
N251        N252   1.321       .  A
N251        C255   1.347       .  A
N252        C253   1.339       .  A
C253        C254   1.381       .  A
C253        H256   1.082       .  S
C254        C255   1.388       .  A
C254        C793   1.478       .  S
C255        H257   1.081       .  S
N258        N259   1.319       .  A
N258        C262   1.341       .  A
N259        C260   1.346       .  A
C260        C261   1.387       .  A
C260        H263   1.082       .  S
C261        C262   1.383       .  A
C261        C772   1.478       .  S
C262        H264   1.081       .  S
C265        C266   1.401       .  A
C265        C270   1.405       .  A
C265        C760   1.481       .  S
C266        C267   1.402       .  A
C266        H271   1.084       .  S
C267        C268   1.404       .  A
C267        C745   1.486       .  S
C268        C269   1.407       .  A
C268        H272   1.083       .  S
C269        C270   1.408       .  A
C270        H273   1.083       .  S
C274        C275   1.404       .  A
C274        C279   1.404       .  A
C274        C733   1.487       .  S
C275        C276   1.406       .  A
C275        H280   1.083       .  S
C276        C277   1.405   1_565  A
C277        C278   1.402   1_545  A
C277        H281   1.083       .  S
C278        C279   1.404       .  A
C278        C724   1.478   1_565  S
C279        H282   1.083       .  S
C283        C284   1.404       .  A
C283        C288   1.402       .  A
C283        C712   1.483       .  S
C284        C285   1.409       .  A
C284        H289   1.083       .  S
C285        C286   1.407   1_565  A
C286        C287   1.401   1_545  A
C286        H290   1.083       .  S
C287        C288   1.400       .  A
C287        C700   1.480   1_565  S
C288        H291   1.084       .  S
N292        N293   1.324       .  A
N292        C296   1.343       .  A
N292       Cu300   2.069       .  S
N293        C294   1.347       .  A
N293       Cu299   2.088       .  S
C294        C295   1.387       .  A
C294        H297   1.082       .  S
C295        C296   1.381       .  A
C295        C748   1.478       .  S
C296        H298   1.082       .  S
Cu299       N302   2.087       .  S
Cu300       N310   2.068       .  S
Cu301       N303   2.054   1_655  S
Cu301       N309   2.053       .  S
N302        N303   1.322   1_655  A
N302        C306   1.348   1_655  A
N303        C304   1.340       .  A
C304        C305   1.380       .  A
C304        H307   1.082       .  S
C305        C306   1.389       .  A
C305        C673   1.478       .  S
C306        H308   1.082       .  S
N309        N310   1.318       .  A
N309        C313   1.341       .  A
N310        C311   1.344       .  A
C311        C312   1.389       .  A
C311        H314   1.081       .  S
C312        C313   1.386       .  A
C312        C688   1.484       .  S
C313        H315   1.081       .  S
N316        N317   1.322       .  A
N316        C320   1.341       .  A
N316       Cu324   2.065       .  S
N317        C318   1.347       .  A
N317       Cu323   2.080       .  S
C318        C319   1.388       .  A
C318        H321   1.081       .  S
C319        C320   1.383       .  A
C319        C697   1.481       .  S
C320        H322   1.082       .  S
Cu323       N326   2.080       .  S
Cu324       N334   2.065       .  S
Cu325       N327   2.065   1_655  S
Cu325       N333   2.065       .  S
N326        N327   1.321   1_655  A
N326        C330   1.346   1_655  A
N327        C328   1.342       .  A
C328        C329   1.384       .  A
C328        H331   1.081       .  S
C329        C330   1.389       .  A
C329        C721   1.483       .  S
C330        H332   1.082       .  S
N333        N334   1.319       .  A
N333        C337   1.343       .  A
N334        C335   1.343   1_545  A
C335        C336   1.386       .  A
C335        H338   1.082       .  S
C336        C337   1.387   1_565  A
C336        C685   1.483       .  S
C337        H339   1.081   1_545  S
C340        C341   1.397       .  A
C340        C345   1.398       .  A
C340        C661   1.472       .  S
C341        C342   1.405       .  A
C341        H346   1.084       .  S
C342        C343   1.410       .  A
C342        C676   1.488       .  S
C343        C344   1.408       .  A
C343        H347   1.082       .  S
C344        C345   1.404       .  A
C345        H348   1.083       .  S
C349        C350   1.401       .  A
C349        C354   1.403       .  A
C349        C652   1.485       .  S
C350        C351   1.400       .  A
C350        H355   1.084       .  S
C351        C352   1.400       .  A
C351        C637   1.475       .  S
C352        C353   1.406       .  A
C352        H356   1.083       .  S
C353        C354   1.412       .  A
C354        H357   1.083       .  S
C358        C359   1.399       .  A
C358        C363   1.396       .  A
C358        C628   1.473       .  S
C359        C360   1.408       .  A
C359        H364   1.082       .  S
C360        C361   1.412       .  A
C361        C362   1.405       .  A
C361        H365   1.083       .  S
C362        C363   1.400       .  A
C362        C613   1.482       .  S
C363        H366   1.083       .  S
N367        N368   1.323       .  A
N367        C371   1.341       .  A
N367       Cu375   2.070   1_554  S
N368        C369   1.347       .  A
N368       Cu374   2.083       .  S
C369        C370   1.388       .  A
C369        H372   1.082       .  S
C370        C371   1.384       .  A
C370        C736   1.484       .  S
C371        H373   1.081   1_554  S
Cu374       N377   2.082       .  S
Cu375       N385   2.069       .  S
Cu376       N378   2.053       .  S
Cu376       N384   2.053   1_554  S
N377        N378   1.321       .  A
N377        C381   1.348       .  A
N378        C379   1.339       .  A
C379        C380   1.379       .  A
C379        H382   1.082       .  S
C380        C381   1.388       .  A
C380        C589   1.477       .  S
C381        H383   1.082       .  S
N384        N385   1.318       .  A
N384        C388   1.340       .  A
N385        C386   1.346       .  A
C386        C387   1.389       .  A
C386        H389   1.082       .  S
C387        C388   1.384       .  A
C387        C601   1.481       .  S
C388        H390   1.081       .  S
N391        N392   1.324       .  A
N391        C395   1.345       .  A
N391       Cu399   2.082       .  S
N392        C393   1.344       .  A
N392       Cu398   2.079       .  S
C393        C394   1.386       .  A
C393        H396   1.082       .  S
C394        C395   1.387       .  A
C394        C649   1.485       .  S
C395        H397   1.081       .  S
Cu398       N401   2.077       .  S
Cu399       N409   2.081       .  S
Cu400       N402   2.046       .  S
Cu400       N408   2.045       .  S
N401        N402   1.320       .  A
N401        C405   1.348       .  A
N402        C403   1.338       .  A
C403        C404   1.378       .  A
C403        H406   1.082       .  S
C404        C405   1.388       .  A
C404        C664   1.473       .  S
C405        H407   1.082       .  S
N408        N409   1.320       .  A
N408        C412   1.341       .  A
N409        C410   1.347       .  A
C410        C411   1.387       .  A
C410        H413   1.082       .  S
C411        C412   1.378       .  A
C411        C604   1.471       .  S
C412        H414   1.082       .  S
N415        N416   1.323       .  A
N415        C419   1.343       .  A
N415       Cu423   2.067   1_554  S
N416        C417   1.346       .  A
N416       Cu422   2.083       .  S
C417        C418   1.388       .  A
C417        H420   1.082       .  S
C418        C419   1.383       .  A
C418        C709   1.483       .  S
C419        H421   1.081   1_554  S
Cu422       N425   2.082       .  S
Cu423       N433   2.066       .  S
Cu424       N426   2.058       .  S
Cu424       N432   2.058   1_554  S
N425        N426   1.322       .  A
N425        C429   1.349       .  A
N426        C427   1.338       .  A
C427        C428   1.380       .  A
C427        H430   1.082       .  S
C428        C429   1.389       .  A
C428        C565   1.480       .  S
C429        H431   1.082       .  S
N432        N433   1.318       .  A
N432        C436   1.343       .  A
N433        C434   1.343       .  A
C434        C435   1.388       .  A
C434        H437   1.081       .  S
C435        C436   1.387       .  A
C435        C580   1.484       .  S
C436        H438   1.082       .  S
N439        N440   1.323       .  A
N439        C443   1.343       .  A
N439       Cu447   2.076       .  S
N440        C441   1.344       .  A
N440       Cu446   2.072       .  S
C441        C442   1.386       .  A
C441        H444   1.080       .  S
C442        C443   1.387       .  A
C442        C625   1.485       .  S
C443        H445   1.082       .  S
Cu446       N449   2.072       .  S
Cu447       N457   2.075       .  S
Cu448       N450   2.057       .  S
Cu448       N456   2.058       .  S
N449        N450   1.320       .  A
N449        C453   1.348       .  A
N450        C451   1.339       .  A
C451        C452   1.381       .  A
C451        H454   1.082       .  S
C452        C453   1.388       .  A
C452        C757   1.478       .  S
C453        H455   1.082       .  S
N456        N457   1.318       .  A
N456        C460   1.340       .  A
N457        C458   1.346       .  A
C458        C459   1.394       .  A
C458        H461   1.079       .  S
C459        C460   1.388       .  A
C459        C577   1.493       .  S
C460        H462   1.081       .  S
C463        C464   1.402       .  A
C463        C468   1.402       .  A
C463        C568   1.480       .  S
C464        C465   1.404       .  A
C464        H469   1.083       .  S
C465        C466   1.408       .  A
C466        C467   1.404       .  A
C466        H470   1.082       .  S
C467        C468   1.405       .  A
C467        C553   1.490       .  S
C468        H471   1.083       .  S
C472        C473   1.401       .  A
C472        C477   1.400       .  A
C472        C592   1.478       .  S
C473        C474   1.405       .  A
C473        H478   1.082       .  S
C474        C475   1.407       .  A
C474        C541   1.487       .  S
C475        C476   1.407       .  A
C475        H479   1.083       .  S
C476        C477   1.403       .  A
C477        H480   1.084       .  S
N481        N482   1.321       .  A
N481        C485   1.340       .  A
N481       Cu489   2.063   1_455  S
N482        C483   1.347       .  A
N482       Cu488   2.074   1_455  S
C483        C484   1.388       .  A
C483        H486   1.081       .  S
C484        C485   1.384       .  A
C484        C640   1.481       .  S
C485        H487   1.082       .  S
Cu488       N491   2.074       .  S
Cu489       N499   2.062       .  S
Cu490       N492   2.072       .  S
Cu490       N498   2.071       .  S
N491        N492   1.322       .  A
N491        C495   1.346       .  A
N492        C493   1.342       .  A
C493        C494   1.384       .  A
C493        H496   1.082       .  S
C494        C495   1.386       .  A
C494        C616   1.480       .  S
C495        H497   1.082       .  S
N498        N499   1.319       .  A
N498        C502   1.344       .  A
N499        C500   1.344       .  A
C500        C501   1.385       .  A
C500        H503   1.082       .  S
C501        C502   1.388       .  A
C501        C529   1.482       .  S
C502        H504   1.081       .  S
N505        N506   1.323   1_455  A
N505        C509   1.346       .  A
N505       Cu513   2.081   1_455  S
N506        C507   1.344   1_655  A
N506       Cu512   2.071       .  S
C507        C508   1.382       .  A
C507        H510   1.082       .  S
C508        C509   1.385       .  A
C508        C544   1.478       .  S
C509        H511   1.082       .  S
Cu512       N515   2.071       .  S
Cu513       N523   2.081       .  S
Cu514       N516   2.065       .  S
Cu514       N522   2.065       .  S
N515        N516   1.320       .  A
N515        C519   1.344       .  A
N516        C517   1.344       .  A
C517        C518   1.384       .  A
C517        H520   1.082       .  S
C518        C519   1.385       .  A
C518        C556   1.478       .  S
C519        H521   1.081       .  S
N522        N523   1.322       .  A
N522        C526   1.341       .  A
N523        C524   1.347       .  A
C524        C525   1.388       .  A
C524        H527   1.082       .  S
C525        C526   1.383       .  A
C525        C532   1.481       .  S
C526        H528   1.082       .  S
C529        C530   1.406       .  A
C529        C534   1.410       .  A
C530        C531   1.402       .  A
C530        H535   1.083       .  S
C531        C532   1.409       .  A
C531        O536   1.371       .  S
C532        C533   1.403       .  A
C533        C534   1.397       .  A
C533        H537   1.083       .  S
C534        O538   1.371       .  S
O536        H540   0.992       .  S
O538        H539   0.992       .  S
C541        C542   1.406       .  A
C541        C546   1.411       .  A
C542        C543   1.400       .  A
C542        H547   1.084       .  S
C543        C544   1.408       .  A
C543        O548   1.371       .  S
C544        C545   1.403       .  A
C545        C546   1.401       .  A
C545        H549   1.084       .  S
C546        O550   1.373       .  S
O548        H552   0.992       .  S
O550        H551   0.992       .  S
C553        C554   1.406       .  A
C553        C558   1.414       .  A
C554        C555   1.399       .  A
C554        H559   1.083       .  S
C555        C556   1.407       .  A
C555        O560   1.372       .  S
C556        C557   1.403       .  A
C557        C558   1.401       .  A
C557        H561   1.084       .  S
C558        O562   1.373       .  S
O560        H564   0.992       .  S
O562        H563   0.992       .  S
C565        C566   1.404       .  A
C565        C570   1.410       .  A
C566        C567   1.395       .  A
C566        H571   1.083       .  S
C567        C568   1.407       .  A
C567        O572   1.372       .  S
C568        C569   1.406       .  A
C569        C570   1.402       .  A
C569        H573   1.084       .  S
C570        O574   1.371       .  S
O572        H576   0.993       .  S
O574        H575   0.992       .  S
C577        C578   1.409       .  A
C577        C582   1.413       .  A
C578        C579   1.398       .  A
C578        H583   1.081       .  S
C579        C580   1.408       .  A
C579        O584   1.371       .  S
C580        C581   1.404       .  A
C581        C582   1.401       .  A
C581        H585   1.082       .  S
C582        O586   1.370       .  S
O584        H588   0.992       .  S
O586        H587   0.992       .  S
C589        C590   1.405       .  A
C589        C594   1.408       .  A
C590        C591   1.398       .  A
C590        H595   1.084       .  S
C591        C592   1.407       .  A
C591        O596   1.372       .  S
C592        C593   1.404       .  A
C593        C594   1.399       .  A
C593        H597   1.084       .  S
C594        O598   1.371       .  S
O596        H600   0.992       .  S
O598        H599   0.992       .  S
C601        C602   1.405       .  A
C601        C606   1.412       .  A
C602        C603   1.400       .  A
C602        H607   1.083       .  S
C603        C604   1.406       .  A
C603        O608   1.372       .  S
C604        C605   1.399       .  A
C605        C606   1.399       .  A
C605        H609   1.084       .  S
C606        O610   1.372       .  S
O608        H612   0.992       .  S
O610        H611   0.992       .  S
C613        C614   1.403       .  A
C613        C618   1.410       .  A
C614        C615   1.398       .  A
C614        H619   1.084       .  S
C615        C616   1.410       .  A
C615        O620   1.371       .  S
C616        C617   1.404       .  A
C617        C618   1.401       .  A
C617        H621   1.083       .  S
C618        O622   1.373       .  S
O620        H624   0.992       .  S
O622        H623   0.993       .  S
C625        C626   1.407       .  A
C625        C630   1.414       .  A
C626        C627   1.397       .  A
C626        H631   1.082       .  S
C627        C628   1.404       .  A
C627        O632   1.372       .  S
C628        C629   1.401       .  A
C629        C630   1.399       .  A
C629        H633   1.084       .  S
C630        O634   1.371       .  S
O632        H636   0.992       .  S
O634        H635   0.991       .  S
C637        C638   1.403       .  A
C637        C642   1.406       .  A
C638        C639   1.403       .  A
C638        H643   1.084       .  S
C639        C640   1.411       .  A
C639        O644   1.371       .  S
C640        C641   1.405       .  A
C641        C642   1.393       .  A
C641        H645   1.082       .  S
C642        O646   1.372       .  S
O644        H648   0.992       .  S
O646        H647   0.993       .  S
C649        C650   1.405       .  A
C649        C654   1.412       .  A
C650        C651   1.398       .  A
C650        H655   1.082       .  S
C651        C652   1.410       .  A
C651        O656   1.372       .  S
C652        C653   1.404       .  A
C653        C654   1.401       .  A
C653        H657   1.084       .  S
C654        O658   1.371       .  S
O656        H660   0.992       .  S
O658        H659   0.992       .  S
C661        C662   1.403       .  A
C661        C666   1.406       .  A
C662        C663   1.400       .  A
C662        H667   1.084       .  S
C663        C664   1.408       .  A
C663        O668   1.371       .  S
C664        C665   1.404       .  A
C665        C666   1.396       .  A
C665        H669   1.084       .  S
C666        O670   1.372       .  S
O668        H672   0.992       .  S
O670        H671   0.992       .  S
C673        C674   1.403       .  A
C673        C678   1.406       .  A
C674        C675   1.397       .  A
C674        H679   1.083       .  S
C675        C676   1.411       .  A
C675        O680   1.372       .  S
C676        C677   1.408       .  A
C677        C678   1.402       .  A
C677        H681   1.083       .  S
C678        O682   1.372       .  S
O680        H684   0.992       .  S
O682        H683   0.992       .  S
C685        C686   1.404       .  A
C685        C690   1.410       .  A
C686        C687   1.401       .  A
C686        H691   1.083       .  S
C687        C688   1.410       .  A
C687        O692   1.371       .  S
C688        C689   1.405       .  A
C689        C690   1.398       .  A
C689        H693   1.082       .  S
C690        O694   1.371   1_655  S
O692        H696   0.992       .  S
O694        H695   0.992       .  S
C697        C698   1.404       .  A
C697        C702   1.412       .  A
C698        C699   1.397       .  A
C698        H703   1.083       .  S
C699        C700   1.409       .  A
C699        O704   1.372       .  S
C700        C701   1.403   1_545  A
C701        C702   1.401   1_565  A
C701        H705   1.084       .  S
C702        O706   1.371   1_545  S
O704        H708   0.991       .  S
O706        H707   0.993       .  S
C709        C710   1.404       .  A
C709        C714   1.412       .  A
C710        C711   1.398       .  A
C710        H715   1.083       .  S
C711        C712   1.410       .  A
C711        O716   1.372       .  S
C712        C713   1.403       .  A
C713        C714   1.402       .  A
C713        H717   1.084   1_554  S
C714        O718   1.372   1_554  S
O716        H720   0.992       .  S
O718        H719   0.992       .  S
C721        C722   1.406       .  A
C721        C726   1.411       .  A
C722        C723   1.401       .  A
C722        H727   1.083       .  S
C723        C724   1.406       .  A
C723        O728   1.372   1_545  S
C724        C725   1.402       .  A
C725        C726   1.400       .  A
C725        H729   1.084       .  S
C726        O730   1.372       .  S
O728        H732   0.992       .  S
O730        H731   0.993       .  S
C733        C734   1.404       .  A
C733        C738   1.412       .  A
C734        C735   1.397       .  A
C734        H739   1.084   1_554  S
C735        C736   1.411       .  A
C735        O740   1.371   1_554  S
C736        C737   1.405       .  A
C737        C738   1.401       .  A
C737        H741   1.083       .  S
C738        O742   1.371       .  S
O740        H744   0.992       .  S
O742        H743   0.992       .  S
C745        C746   1.406       .  A
C745        C750   1.411       .  A
C746        C747   1.402       .  A
C746        H751   1.083       .  S
C747        C748   1.407       .  A
C747        O752   1.372       .  S
C748        C749   1.403       .  A
C749        C750   1.399       .  A
C749        H753   1.084       .  S
C750        O754   1.373       .  S
O752        H756   0.991       .  S
O754        H755   0.992       .  S
C757        C758   1.403       .  A
C757        C762   1.410       .  A
C758        C759   1.395       .  A
C758        H763   1.084       .  S
C759        C760   1.409       .  A
C759        O764   1.372       .  S
C760        C761   1.404       .  A
C761        C762   1.403       .  A
C761        H765   1.084       .  S
C762        O766   1.371       .  S
O764        H768   0.992       .  S
O766        H767   0.992       .  S
C769        C770   1.404       .  A
C769        C774   1.416       .  A
C770        C771   1.398       .  A
C770        H775   1.082       .  S
C771        C772   1.410       .  A
C771        O776   1.371       .  S
C772        C773   1.400       .  A
C773        C774   1.400       .  A
C773        H777   1.084       .  S
C774        O778   1.371       .  S
O776        H780   0.992       .  S
O778        H779   0.993       .  S
C781        C782   1.402       .  A
C781        C786   1.403       .  A
C782        C783   1.400       .  A
C782        H787   1.084       .  S
C783        C784   1.413       .  A
C783        O788   1.370       .  S
C784        C785   1.408       .  A
C785        C786   1.396       .  A
C785        H789   1.082       .  S
C786        O790   1.372       .  S
O788        H792   0.991       .  S
O790        H791   0.991       .  S
C793        C794   1.404       .  A
C793        C798   1.410       .  A
C794        C795   1.397       .  A
C794        H799   1.083       .  S
C795        C796   1.406       .  A
C795        O800   1.372       .  S
C796        C797   1.402       .  A
C797        C798   1.401       .  A
C797        H801   1.084       .  S
C798        O802   1.371       .  S
O800        H804   0.992       .  S
O802        H803   0.992       .  S
C805        C806   1.403       .  A
C805        C810   1.409       .  A
C806        C807   1.400       .  A
C806        H811   1.084       .  S
C807        C808   1.409       .  A
C807        O812   1.372       .  S
C808        C809   1.405       .  A
C809        C810   1.398       .  A
C809        H813   1.084       .  S
C810        O814   1.372       .  S
O812        H816   0.991       .  S
O814        H815   0.993       .  S
C817        C818   1.404       .  A
C817        C822   1.410       .  A
C818        C819   1.400       .  A
C818        H823   1.083       .  S
C819        C820   1.409       .  A
C819        O824   1.371       .  S
C820        C821   1.404       .  A
C821        C822   1.399       .  A
C821        H825   1.083       .  S
C822        O826   1.371       .  S
O824        H828   0.992       .  S
O826        H827   0.993   1_556  S
C829        C830   1.402   1_565  A
C829        C834   1.409       .  A
C830        C831   1.399       .  A
C830        H835   1.084       .  S
C831        C832   1.411       .  A
C831        O836   1.371       .  S
C832        C833   1.405   1_545  A
C833        C834   1.397       .  A
C833        H837   1.083       .  S
C834        O838   1.372       .  S
O836        H840   0.992       .  S
O838        H839   0.992       .  S
C841        C842   1.404       .  A
C841        C846   1.411       .  A
C842        C843   1.400       .  A
C842        H847   1.083       .  S
C843        C844   1.409       .  A
C843        O848   1.371       .  S
C844        C845   1.402       .  A
C845        C846   1.395       .  A
C845        H849   1.083       .  S
C846        O850   1.371       .  S
O848        H852   0.992       .  S
O850        H851   0.993       .  S
C853        C854   1.401       .  A
C853        C858   1.409       .  A
C854        C855   1.396       .  A
C854        H859   1.084       .  S
C855        C856   1.409       .  A
C855        O860   1.373       .  S
C856        C857   1.402       .  A
C857        C858   1.401       .  A
C857        H861   1.084       .  S
C858        O862   1.371       .  S
O860        H864   0.992       .  S
O862        H863   0.992       .  S
C865        C866   1.405       .  A
C865        C870   1.409       .  A
C866        C867   1.394       .  A
C866        H871   1.084       .  S
C867        C868   1.406       .  A
C867        O872   1.372       .  S
C868        C869   1.403       .  A
C869        C870   1.402       .  A
C869        H873   1.084       .  S
C870        O874   1.372       .  S
O872        H876   0.992       .  S
O874        H875   0.991       .  S
C877        C878   1.405       .  A
C877        C882   1.407       .  A
C878        C879   1.398       .  A
C878        H883   1.084       .  S
C879        C880   1.411       .  A
C879        O884   1.371       .  S
C880        C881   1.406       .  A
C881        C882   1.401       .  A
C881        H885   1.083       .  S
C882        O886   1.372       .  S
O884        H888   0.992       .  S
O886        H887   0.992       .  S
C889        C890   1.403       .  A
C889        C894   1.408       .  A
C890        C891   1.398       .  A
C890        H895   1.084       .  S
C891        C892   1.409       .  A
C891        O896   1.371       .  S
C892        C893   1.404       .  A
C893        C894   1.400       .  A
C893        H897   1.083       .  S
C894        O898   1.372       .  S
O896        H900   0.991       .  S
O898        H899   0.993       .  S
C901        C902   1.402       .  A
C901        C906   1.409       .  A
C902        C903   1.398       .  A
C902        H907   1.084       .  S
C903        C904   1.411       .  A
C903        O908   1.371       .  S
C904        C905   1.405       .  A
C905        C906   1.402       .  A
C905        H909   1.083       .  S
C906        O910   1.373       .  S
O908        H912   0.991       .  S
O910        H911   0.992       .  S
C913        C914   1.404       .  A
C913        C918   1.410       .  A
C914        C915   1.396       .  A
C914        H919   1.084       .  S
C915        C916   1.409       .  A
C915        O920   1.371       .  S
C916        C917   1.406       .  A
C917        C918   1.403       .  A
C917        H921   1.083       .  S
C918        O922   1.372       .  S
O920        H924   0.992       .  S
O922        H923   0.992       .  S
C925        C926   1.403       .  A
C925        C930   1.407       .  A
C926        C927   1.400       .  A
C926        H931   1.083       .  S
C927        C928   1.413       .  A
C927        O932   1.371       .  S
C928        C929   1.405       .  A
C929        C930   1.396       .  A
C929        H933   1.082       .  S
C930        O934   1.372       .  S
O932        H936   0.993       .  S
O934        H935   0.992       .  S
C937        C938   1.406       .  A
C937        C942   1.410       .  A
C938        C939   1.399       .  A
C938        H943   1.083       .  S
C939        C940   1.409       .  A
C939        O944   1.371       .  S
C940        C941   1.404       .  A
C941        C942   1.398       .  A
C941        H945   1.083       .  S
C942        O946   1.373       .  S
O944        H948   0.992       .  S
O946        H947   0.993       .  S
C949        C950   1.407       .  A
C949        C954   1.413       .  A
C950        C951   1.396       .  A
C950        H955   1.083       .  S
C951        C952   1.405       .  A
C951        O956   1.372       .  S
C952        C953   1.402       .  A
C953        C954   1.402       .  A
C953        H957   1.084       .  S
C954        O958   1.370       .  S
O956        H960   0.992       .  S
O958        H959   0.993       .  S
C961        C962   1.400       .  A
C961        C966   1.407       .  A
C962        C963   1.397       .  A
C962        H967   1.084       .  S
C963        C964   1.410       .  A
C963        O968   1.372       .  S
C964        C965   1.402       .  A
C965        C966   1.400       .  A
C965        H969   1.083       .  S
C966        O970   1.372       .  S
O968        H972   0.992       .  S
O970        H971   0.992       .  S
C973        C974   1.403       .  A
C973        C978   1.409   1_565  A
C974        C975   1.398       .  A
C974        H979   1.083       .  S
C975        C976   1.411       .  A
C975        O980   1.373   1_556  S
C976        C977   1.405   1_565  A
C977        C978   1.400       .  A
C977        H981   1.083       .  S
C978        O982   1.372       .  S
O980        H984   0.993   1_554  S
O982        H983   0.992       .  S
C985        C986   1.404       .  A
C985        C990   1.406       .  A
C986        C987   1.403       .  A
C986        H991   1.084       .  S
C987        C988   1.411       .  A
C987        O992   1.370       .  S
C988        C989   1.406       .  A
C989        C990   1.395       .  A
C989        H993   1.083       .  S
C990        O994   1.372       .  S
O992        H996   0.992       .  S
O994        H995   0.993       .  S
C997        C998   1.406       .  A
C997       C1002   1.412       .  A
C998        C999   1.398       .  A
C998       H1003   1.084       .  S
C999       C1000   1.408       .  A
C999       O1004   1.372       .  S
C1000      C1001   1.403       .  A
C1001      C1002   1.403       .  A
C1001      H1005   1.083       .  S
C1002      O1006   1.371       .  S
O1004      H1008   0.992       .  S
O1006      H1007   0.991       .  S
