geometry optimzed in LAMMPS
_audit_creation_date              2020-11-30 
_audit_creation_method            'lammps2cif' 
_symmetry_space_group_name_H-M    'P1' 
_symmetry_Int_Tables_number       1 
_symmetry_cell_setting            triclinic 
loop_ 
_symmetry_equiv_pos_as_xyz 
  x,y,z 
_cell_length_a                    41.556898 
_cell_length_b                    41.67157842573815 
_cell_length_c                    41.77318493406764 
_cell_angle_alpha                 89.40391393940234 
_cell_angle_beta                  90.28118247767773 
_cell_angle_gamma                 90.94861904757309 
loop_ 
_atom_site_label 
_atom_site_type_symbol 
_atom_site_fract_x 
_atom_site_fract_y 
_atom_site_fract_z 
_atom_site_charge 
Zn1        Zn  0.73271656  0.78070183  0.78955119     1.49700
Zn2        Zn  0.72888997  0.73527712  0.72959215     1.49400
Zn3        Zn  0.77746587  0.79416092  0.72989977     1.49100
Zn4        Zn  0.78944694  0.73322493  0.77555326     1.49500
O5          O  0.75734938  0.76089168  0.75621130    -1.82500
O6          O  0.68568293  0.77506208  0.78126634    -0.73100
O7          O  0.74211610  0.73971145  0.68317133    -0.73000
O8          O  0.76107733  0.83815623  0.74177661    -0.72500
O9          O  0.68286264  0.75007225  0.73453458    -0.73200
O10         O  0.73838849  0.82875539  0.78918195    -0.72800
O11         O  0.77057791  0.78532805  0.68304158    -0.73300
O12         O  0.83330932  0.74522004  0.75806976    -0.72700
O13         O  0.73131449  0.68860212  0.74331950    -0.73500
O14         O  0.82561287  0.79266537  0.73439996    -0.72900
O15         O  0.77759333  0.68616286  0.76988622    -0.73300
O16         O  0.79019080  0.73716022  0.82361842    -0.73300
O17         O  0.74423666  0.76216644  0.83268198    -0.73000
C18         C  0.66950327  0.76459861  0.75755685     0.78700
C19         C  0.75793713  0.76165444  0.66828870     0.79200
C20         C  0.74732829  0.84806819  0.76701204     0.78200
C21         C  0.84415313  0.77035732  0.74373925     0.78600
C22         C  0.75231804  0.67251506  0.75870835     0.79700
C23         C  0.76856533  0.74665166  0.84261873     0.78800
Zn24       Zn  0.23173900  0.71746471  0.73344379     1.49700
Zn25       Zn  0.22941661  0.77733061  0.78090354     1.49400
Zn26       Zn  0.28783250  0.73196451  0.78358944     1.49100
Zn27       Zn  0.27650825  0.77850335  0.72292322     1.49500
O28         O  0.25638833  0.75096532  0.75504973    -1.82500
O29         O  0.18448463  0.72455647  0.74032792    -0.73100
O30         O  0.23049272  0.76218405  0.82735583    -0.73000
O31         O  0.28897811  0.68458621  0.77799281    -0.72500
O32         O  0.18415012  0.77214786  0.76439182    -0.73200
O33         O  0.24571714  0.67312288  0.74861729    -0.72800
O34         O  0.27562175  0.73488889  0.83024674    -0.73300
O35         O  0.32434048  0.77506825  0.72667184    -0.72700
O36         O  0.24342418  0.82435417  0.77734037    -0.73500
O37         O  0.33160823  0.75069523  0.77391688    -0.72900
O38         O  0.26905438  0.82498306  0.73074901    -0.73300
O39         O  0.26088646  0.76823889  0.67833033    -0.73300
O40         O  0.23599541  0.72132413  0.68518016    -0.73000
C41         C  0.16968642  0.74912350  0.75011374     0.78700
C42         C  0.25057594  0.74567583  0.84352502     0.79200
C43         C  0.26978206  0.66419511  0.76547076     0.78200
C44         C  0.34258584  0.76565509  0.74938442     0.78600
C45         C  0.25779735  0.83948800  0.75469682     0.79700
C46         C  0.24588339  0.74404073  0.66685635     0.78800
N47         N  0.77605096  0.74629382  0.50585412    -0.01900
C48         C  0.75500176  0.74950648  0.53059068     0.00700
C49         C  0.72361772  0.74817770  0.51973275    -0.22200
C50         C  0.72491518  0.74424106  0.48735866    -0.22400
C51         C  0.75707442  0.74289879  0.47924169     0.00600
H52         H  0.70205002  0.75003969  0.53396909     0.14400
H53         H  0.70448607  0.74238542  0.47127014     0.14400
N54         N  0.00751781  0.76710882  0.72723614    -0.01900
C55         C  0.98229507  0.77472958  0.74637171     0.00700
C56         C  0.99243734  0.77961489  0.77749358    -0.22200
C57         C  0.02488646  0.77525131  0.77793754    -0.22400
C58         C  0.03359944  0.76744386  0.74717139     0.00600
H59         H  0.97759583  0.78521508  0.79784360     0.14400
H60         H  0.04052847  0.77682155  0.79867909     0.20800
N61         N  0.99845316  0.77148404  0.28483289    -0.01900
C62         C  0.97317316  0.78048086  0.26597405     0.00700
C63         C  0.98399088  0.79236096  0.23694758    -0.22200
C64         C  0.01685656  0.79065707  0.23762925    -0.22400
C65         C  0.02529660  0.77747341  0.26696094     0.00600
H66         H  0.96937845  0.79969713  0.21672832     0.14400
H67         H  0.03284793  0.79613825  0.21786933     0.14400
N68         N  0.96303403  0.74778432  0.47149437    -0.35000
N69         N  0.03320264  0.75138636  0.46978777    -0.55600
N70         N  0.03478833  0.75282169  0.54010892    -0.35000
N71         N  0.96462696  0.74927486  0.54196081    -0.55600
C72         C  0.96732384  0.75313246  0.43963465     0.28600
C73         C  0.93112481  0.75012503  0.47757344     0.28600
C74         C  0.06646103  0.74836626  0.53419187     0.28600
C75         C  0.03058763  0.75066915  0.57225698     0.28600
C76         C  0.02779891  0.75339949  0.43788868     0.37200
C77         C  0.06547455  0.75201752  0.47403228     0.37200
C78         C  0.93237326  0.74647840  0.53782279     0.37200
C79         C  0.97016748  0.75030663  0.57393352     0.37200
C80         C  0.93759619  0.75797085  0.42528043    -0.20300
C81         C  0.91490073  0.75620153  0.44909316    -0.20300
C82         C  0.08259136  0.74390978  0.56301233    -0.20300
C83         C  0.06021248  0.74601631  0.58691228    -0.20300
C84         C  0.05689732  0.75574965  0.42181432    -0.21300
C85         C  0.08068847  0.75471347  0.44464909    -0.21300
C86         C  0.91739703  0.74524244  0.56743508    -0.21300
C87         C  0.94122940  0.74792515  0.59020538    -0.21300
C88         C  0.99711774  0.75406592  0.42285280    -0.16700
C89         C  0.91583883  0.74702416  0.50792150    -0.16700
C90         C  0.00089489  0.75230098  0.58897294    -0.16700
C91         C  0.08173155  0.74880206  0.50377120    -0.16700
H92         H  0.93266067  0.76271724  0.40023274     0.16200
H93         H  0.88930437  0.75943495  0.44576801     0.16200
H94         H  0.10800505  0.73980564  0.56663293     0.16200
H95         H  0.06536456  0.74373259  0.61222352     0.16200
H96         H  0.06070406  0.75807692  0.39627705     0.14500
H97         H  0.10630497  0.75581966  0.44009912     0.14500
H98         H  0.89186967  0.74317418  0.57221281     0.14500
H99         H  0.93763997  0.74775452  0.61585447     0.14500
H100        H  0.98039897  0.74067321  0.48780910     0.27800
H101        H  0.01749465  0.75924295  0.52345280     0.27800
N102        N  0.21858579  0.72470687  0.50535270    -0.01900
C103        C  0.23631845  0.71394846  0.48038489     0.00700
C104        C  0.26454673  0.70059090  0.49119657    -0.22200
C105        C  0.26448597  0.70308319  0.52381897    -0.22400
C106        C  0.23632627  0.71815353  0.53204553     0.00600
H107        H  0.28390883  0.69163758  0.47672914     0.14400
H108        H  0.28397121  0.69662776  0.53979525     0.14400
Zn109      Zn  0.22719841  0.77262024  0.28216136     1.49700
Zn110      Zn  0.27903656  0.76286655  0.22692383     1.49400
Zn111      Zn  0.27421240  0.71453663  0.28429311     1.49100
Zn112      Zn  0.21851643  0.71684968  0.23202389     1.49500
O113        O  0.24950708  0.74186823  0.25640258    -1.82500
O114        O  0.24256627  0.81735328  0.27052875    -0.73100
O115        O  0.32488152  0.76060263  0.24297321    -0.73000
O116        O  0.25701699  0.71625739  0.32882881    -0.72500
O117        O  0.27089397  0.81015584  0.22603022    -0.73200
O118        O  0.23127835  0.76243757  0.32947945    -0.72800
O119        O  0.32072583  0.72938815  0.28608508    -0.73300
O120        O  0.22966883  0.67017500  0.23516913    -0.72700
O121        O  0.27377294  0.74453846  0.18218755    -0.73500
O122        O  0.27114502  0.66914628  0.26868436    -0.72900
O123        O  0.22358459  0.72582915  0.18451204    -0.73300
O124        O  0.17250928  0.72472603  0.24751797    -0.73300
O125        O  0.17946805  0.76932076  0.27508433    -0.73000
C126        C  0.25826567  0.82846019  0.24654067     0.78700
C127        C  0.33738380  0.74766740  0.26772176     0.79200
C128        C  0.24140225  0.73737818  0.34379782     0.78200
C129        C  0.25204337  0.65494555  0.24927931     0.78600
C130        C  0.24882833  0.73276920  0.16837454     0.79700
C131        C  0.16087108  0.74776049  0.26354660     0.78800
Zn132      Zn  0.71548009  0.72442712  0.23014788     1.49700
Zn133      Zn  0.77420534  0.77309307  0.22664649     1.49400
Zn134      Zn  0.72705714  0.77442038  0.28568316     1.49100
Zn135      Zn  0.77508896  0.71669248  0.27695348     1.49500
O136        O  0.74782462  0.74715083  0.25498258    -1.82500
O137        O  0.72351055  0.73013840  0.18317159    -0.73100
O138        O  0.75879347  0.81862214  0.22737106    -0.73000
O139        O  0.67917388  0.76660074  0.28529413    -0.72500
O140        O  0.77023082  0.75693300  0.18118508    -0.73200
O141        O  0.67083856  0.73991525  0.24044549    -0.72800
O142        O  0.73051246  0.82127890  0.27208948    -0.73300
O143        O  0.76710897  0.71747412  0.32449818    -0.72700
O144        O  0.82056171  0.77269732  0.24135757    -0.73500
O145        O  0.74459105  0.76528149  0.33035659    -0.72900
O146        O  0.82187238  0.73023721  0.27379382    -0.73300
O147        O  0.76740959  0.67198419  0.25926953    -0.73300
O148        O  0.71917197  0.67652606  0.23686370    -0.73000
C149        C  0.74733484  0.74150510  0.16749992     0.78700
C150        C  0.74199448  0.83455964  0.24688784     0.79200
C151        C  0.66001930  0.75538005  0.26414840     0.78200
C152        C  0.75796492  0.74035280  0.34212868     0.78600
C153        C  0.83594151  0.75396125  0.26003887     0.79700
C154        C  0.74287667  0.65933769  0.24549571     0.78800
N155        N  0.76015462  0.72205154  0.00470202    -0.01900
C156        C  0.76449211  0.74240065  0.97916408     0.00700
C157        C  0.76399667  0.77399531  0.98877445    -0.22200
C158        C  0.75978377  0.77358931  0.02109570    -0.22400
C159        C  0.75719716  0.74177315  0.03043854     0.00600
H160        H  0.76662191  0.79516693  0.97371832     0.14400
H161        H  0.75839339  0.79437614  0.03632495     0.14400
N162        N  0.73407555  0.50852483  0.77682352    -0.01900
C163        C  0.72663456  0.53565803  0.75988295     0.00700
C164        C  0.71624993  0.52797085  0.72943230    -0.22200
C165        C  0.71723500  0.49526602  0.72718423    -0.22400
C166        C  0.72831026  0.48383974  0.75629794     0.00600
H167        H  0.71028592  0.54460275  0.71032010     0.14400
H168        H  0.71226686  0.48134001  0.70594631     0.14400
N169        N  0.76216459  0.27669075  0.99092931    -0.01900
C170        C  0.76741706  0.25819325  0.96462314     0.00700
C171        C  0.76993806  0.22628797  0.97336357    -0.22200
C172        C  0.76637283  0.22461754  0.00579900    -0.22400
C173        C  0.76130162  0.25549078  0.01618103     0.00600
H174        H  0.77330833  0.20619818  0.95757576     0.14400
H175        H  0.76666990  0.20297760  0.02034994     0.14400
N176        N  0.75427901  0.46499460  0.96195660    -0.35000
N177        N  0.75212853  0.46267904  0.03197567    -0.55600
N178        N  0.75390936  0.53333506  0.03323997    -0.35000
N179        N  0.75216996  0.53556377  0.96324845    -0.55600
C180        C  0.75016422  0.43295200  0.96682328     0.28600
C181        C  0.74798204  0.47123715  0.93063115     0.28600
C182        C  0.74966331  0.52705717  0.06487039     0.28600
C183        C  0.75203723  0.56554151  0.02873008     0.28600
C184        C  0.75592772  0.43094819  0.02662309     0.37200
C185        C  0.75355774  0.46678813  0.06409218     0.37200
C186        C  0.75276864  0.53151788  0.93111909     0.37200
C187        C  0.75478886  0.56755561  0.96854178     0.37200
C188        C  0.74187433  0.41859691  0.93807061    -0.20300
C189        C  0.74040078  0.44266316  0.91534365    -0.20300
C190        C  0.74552452  0.55578359  0.08072803    -0.20300
C191        C  0.74750499  0.57993993  0.05814933    -0.20300
C192        C  0.75962645  0.41480399  0.05557098    -0.21300
C193        C  0.75784690  0.43739643  0.07923171    -0.21300
C194        C  0.75531120  0.56117328  0.91590408    -0.21300
C195        C  0.75652553  0.58390475  0.93949784    -0.21300
C196        C  0.75431578  0.41594174  0.99621328    -0.16700
C197        C  0.74951749  0.50173470  0.91499767    -0.16700
C198        C  0.75447355  0.58256064  0.99902131    -0.16700
C199        C  0.75024675  0.49640998  0.08028651    -0.16700
H200        H  0.73709437  0.39336730  0.93389695     0.16200
H201        H  0.73435930  0.43941261  0.89033916     0.16200
H202        H  0.74178483  0.55918633  0.10608052     0.16200
H203        H  0.74554756  0.60526654  0.06305130     0.16200
H204        H  0.76281702  0.38931506  0.05933757     0.14500
H205        H  0.75966600  0.43271851  0.10470813     0.14500
H206        H  0.75594492  0.56600208  0.89040267     0.14500
H207        H  0.75818754  0.60959485  0.93561148     0.14500
H208        H  0.76380589  0.48108811  0.97830254     0.27800
H209        H  0.75970309  0.51681616  0.01607784     0.27800
N210        N  0.72793226  0.49681932  0.21736533    -0.01900
C211        C  0.71876110  0.47049135  0.23495768     0.00700
C212        C  0.70587674  0.47939368  0.26382949    -0.22200
C213        C  0.70703238  0.51219742  0.26437596    -0.22400
C214        C  0.72091631  0.52247946  0.23594292     0.00600
H215        H  0.69786289  0.46361251  0.28303324     0.14400
H216        H  0.70038362  0.52704798  0.28431473     0.14400
Zn217      Zn  0.77784095  0.27350116  0.21946205     1.49700
Zn218      Zn  0.72103049  0.27375182  0.26990221     1.49400
Zn219      Zn  0.71931368  0.22369686  0.21423754     1.49100
Zn220      Zn  0.76918908  0.21712506  0.27023892     1.49500
O221        O  0.74689244  0.24726989  0.24320494    -1.82500
O222        O  0.76706008  0.32063698  0.22297310    -0.73100
O223        O  0.67481746  0.25758118  0.27029288    -0.73000
O224        O  0.72566994  0.24043369  0.16883753    -0.72500
O225        O  0.72301636  0.31893293  0.25293917    -0.73200
O226        O  0.77291234  0.26535951  0.17184221    -0.72800
O227        O  0.67263286  0.22572397  0.22804990    -0.73300
O228        O  0.75147200  0.17222245  0.26489578    -0.72700
O229        O  0.73867722  0.27387737  0.31487030    -0.73500
O230        O  0.72929462  0.17651429  0.21672855    -0.72900
O231        O  0.76915216  0.23072534  0.31620841    -0.73300
O232        O  0.81598184  0.21750140  0.25998283    -0.73300
O233        O  0.82360038  0.26426642  0.23530549    -0.73000
C234        C  0.74301898  0.33442837  0.23535607     0.78700
C235        C  0.65901641  0.23898083  0.25166917     0.79200
C236        C  0.74922113  0.25496175  0.15514197     0.78200
C237        C  0.73872221  0.15931071  0.24028345     0.78600
C238        C  0.75738234  0.25496664  0.32988457     0.79700
C239        C  0.83482780  0.23961938  0.24974533     0.78800
Zn240      Zn  0.72536758  0.23826728  0.76879841     1.49700
Zn241      Zn  0.72787536  0.29059656  0.71315686     1.49400
Zn242      Zn  0.78612380  0.28604088  0.76109333     1.49100
Zn243      Zn  0.77160745  0.23081818  0.71068220     1.49500
O244        O  0.75291674  0.26161653  0.73890244    -1.82500
O245        O  0.67853280  0.24296377  0.75606382    -0.73100
O246        O  0.73159454  0.33495685  0.73135617    -0.73000
O247        O  0.78203651  0.27822565  0.80877578    -0.72500
O248        O  0.68145209  0.27561675  0.71374333    -0.73200
O249        O  0.73514465  0.25211610  0.81445996    -0.72800
O250        O  0.77911684  0.33408969  0.75626438    -0.73300
O251        O  0.81913124  0.22868479  0.71742059    -0.72700
O252        O  0.74362634  0.29130365  0.66709245    -0.73500
O253        O  0.83035279  0.27242817  0.74586500    -0.72900
O254        O  0.76756391  0.24406185  0.66522526    -0.73300
O255        O  0.75198970  0.18703263  0.71658042    -0.73300
O256        O  0.73206811  0.19054083  0.76536647    -0.73000
C257        C  0.66528391  0.25696378  0.73224084     0.78700
C258        C  0.75427894  0.34904011  0.74663022     0.79200
C259        C  0.75978246  0.26639250  0.82645446     0.78200
C260        C  0.83933655  0.24815885  0.72990549     0.78600
C261        C  0.75784410  0.26949308  0.65162533     0.79700
C262        C  0.73966640  0.17378623  0.74128320     0.78800
N263        N  0.72321139  0.01080331  0.76394054    -0.01900
C264        C  0.74273558  0.98620214  0.77330179     0.00700
C265        C  0.77306906  0.99797899  0.78105151    -0.22200
C266        C  0.77245112  0.03045096  0.77715785    -0.22400
C267        C  0.74204964  0.03785000  0.76622673     0.00600
H268        H  0.79380985  0.98421952  0.78821797     0.14400
H269        H  0.79257938  0.04693135  0.78044058     0.14400
N270        N  0.50615187  0.78745528  0.74935538    -0.01900
C271        C  0.48015438  0.76717324  0.74700607     0.00700
C272        C  0.48927707  0.73550899  0.74808440    -0.22200
C273        C  0.52191247  0.73570422  0.75078796    -0.22400
C274        C  0.53179420  0.76748683  0.75182922     0.00600
H275        H  0.47365962  0.71448743  0.74713591     0.14400
H276        H  0.53701430  0.71482264  0.75237349     0.14400
N277        N  0.28070023  0.00285797  0.76419549    -0.01900
C278        C  0.26121725  0.97651909  0.76872576     0.00700
C279        C  0.23091543  0.98537411  0.77831540    -0.22200
C280        C  0.23119884  0.01808751  0.77969792    -0.22400
C281        C  0.26171923  0.02834664  0.77108388     0.00600
H282        H  0.21040721  0.96960560  0.78266635     0.14400
H283        H  0.21093185  0.03300624  0.78523189     0.14400
N284        N  0.46750468  0.97391798  0.74374585    -0.35000
N285        N  0.46682308  0.04428823  0.74110759    -0.55600
N286        N  0.53693159  0.04573003  0.73707836    -0.35000
N287        N  0.53742452  0.97568880  0.74329363    -0.55600
C288        C  0.43636439  0.97905881  0.75137399     0.28600
C289        C  0.47370054  0.94268755  0.75040028     0.28600
C290        C  0.53109839  0.07748191  0.73988931     0.28600
C291        C  0.56842033  0.04120931  0.74427830     0.28600
C292        C  0.43472583  0.03815518  0.73967902     0.37200
C293        C  0.47121172  0.07577476  0.73359511     0.37200
C294        C  0.53272432  0.94371715  0.73971035     0.37200
C295        C  0.56920708  0.98152148  0.73888870     0.37200
C296        C  0.42251124  0.95056596  0.76254011    -0.20300
C297        C  0.44600625  0.92766012  0.76184894    -0.20300
C298        C  0.55939132  0.09346341  0.74825373    -0.20300
C299        C  0.58282930  0.07058837  0.75132216    -0.20300
C300        C  0.41862323  0.06601187  0.73170848    -0.21300
C301        C  0.44169852  0.08974949  0.72764831    -0.21300
C302        C  0.56165724  0.92921666  0.73293670    -0.21300
C303        C  0.58477789  0.95312129  0.73260700    -0.21300
C304        C  0.41951661  0.00820829  0.74699503    -0.16700
C305        C  0.50328350  0.92701598  0.74522479    -0.16700
C306        C  0.58490761  0.01159621  0.74313462    -0.16700
C307        C  0.50121393  0.09262917  0.73412601    -0.16700
H308        H  0.39790187  0.94656518  0.77016725     0.16200
H309        H  0.44300247  0.90273413  0.76893190     0.16200
H310        H  0.56275987  0.11896188  0.75201659     0.16200
H311        H  0.60776115  0.07517178  0.75765905     0.16200
H312        H  0.39290259  0.06895286  0.72917254     0.14500
H313        H  0.43719272  0.11459270  0.72156474     0.14500
H314        H  0.56582662  0.90393537  0.72937606     0.14500
H315        H  0.61023586  0.94990998  0.72861453     0.14500
H316        H  0.48263067  0.98985534  0.73161792     0.27800
H317        H  0.52108765  0.02874495  0.72770055     0.27800
N318        N  0.50299335  0.23058889  0.71198398    -0.01900
C319        C  0.47684832  0.24848421  0.70436230     0.00700
C320        C  0.48626829  0.27723967  0.69020924    -0.22200
C321        C  0.51914606  0.27761456  0.68943934    -0.22400
C322        C  0.52894588  0.24896059  0.70284654     0.00600
H323        H  0.47084439  0.29685469  0.68335410     0.14400
H324        H  0.53441592  0.29743544  0.68158972     0.14400
Zn325      Zn  0.27417121  0.22735638  0.71521120     1.49700
Zn326      Zn  0.22583947  0.22643936  0.77300874     1.49400
Zn327      Zn  0.28530134  0.27482350  0.77285467     1.49100
Zn328      Zn  0.22779073  0.28482940  0.72382375     1.49500
O329        O  0.25321600  0.25339940  0.74653915    -1.82500
O330        O  0.27201686  0.18049692  0.72745144    -0.73100
O331        O  0.23011766  0.24039491  0.81945177    -0.73000
O332        O  0.33021843  0.26180150  0.76045106    -0.72500
O333        O  0.23988249  0.18029162  0.76969684    -0.73200
O334        O  0.32144595  0.23792363  0.71407358    -0.72800
O335        O  0.27748205  0.26620139  0.81962464    -0.73300
O336        O  0.23556393  0.32911019  0.74164435    -0.72700
O337        O  0.17953093  0.22966345  0.75794119    -0.73500
O338        O  0.28085090  0.32278703  0.76894957    -0.72900
O339        O  0.18097333  0.27361090  0.72718282    -0.73300
O340        O  0.23642881  0.28382909  0.67627585    -0.73300
O341        O  0.25513472  0.23474650  0.67133512    -0.73000
C342        C  0.25822206  0.16563677  0.75048788     0.78700
C343        C  0.25306581  0.25468205  0.83430962     0.79200
C344        C  0.34083396  0.24883535  0.73516264     0.78200
C345        C  0.25864228  0.34077071  0.75826658     0.78600
C346        C  0.16557089  0.25040102  0.74026986     0.79700
C347        C  0.24358251  0.26009953  0.65879531     0.78800
N348        N  0.23133825  0.71514656  0.00489663    -0.01900
C349        C  0.22421807  0.73552962  0.98001202     0.00700
C350        C  0.21577019  0.76519268  0.99134641    -0.22200
C351        C  0.21775477  0.76350512  0.02398417    -0.22400
C352        C  0.22773391  0.73293895  0.03189446     0.00600
H353        H  0.21059836  0.78641899  0.97721065     0.14400
H354        H  0.21440291  0.78319655  0.04026692     0.14400
N355        N  0.28043614  0.50142741  0.78706452    -0.01900
C356        C  0.28772687  0.47574020  0.76875156     0.00700
C357        C  0.30398138  0.48558936  0.74149807    -0.22200
C358        C  0.30654462  0.51830039  0.74258107    -0.22400
C359        C  0.29205305  0.52758909  0.77060745     0.00600
H360        H  0.31127142  0.47063946  0.72186892     0.14400
H361        H  0.31649123  0.53385770  0.72409258     0.14400
N362        N  0.23635335  0.27011179  0.99734221    -0.01900
C363        C  0.23756982  0.25086566  0.97108189     0.00700
C364        C  0.23219557  0.21912717  0.97962672    -0.22200
C365        C  0.22782465  0.21827005  0.01198992    -0.22400
C366        C  0.23037972  0.24952571  0.02241281     0.00600
H367        H  0.23225267  0.19863565  0.96391444     0.14400
H368        H  0.22410814  0.19696912  0.02664455     0.14400
N369        N  0.24317134  0.45892542  0.96811921    -0.35000
N370        N  0.23970221  0.52934199  0.96936652    -0.55600
N371        N  0.24358743  0.52697657  0.03904629    -0.35000
N372        N  0.24397978  0.45637884  0.03800601    -0.55600
C373        C  0.24333176  0.46513264  0.93623718     0.28600
C374        C  0.24179303  0.42662292  0.97240059     0.28600
C375        C  0.23576146  0.55820577  0.03453006     0.28600
C376        C  0.23970586  0.51997862  0.07054420     0.28600
C377        C  0.24400438  0.52565990  0.93753327     0.37200
C378        C  0.24092266  0.56128551  0.97494351     0.37200
C379        C  0.24700583  0.42462403  0.03238244     0.37200
C380        C  0.24936091  0.46071197  0.06963743     0.37200
C381        C  0.24210081  0.43624450  0.91997531    -0.20300
C382        C  0.24055736  0.41210235  0.94267245    -0.20300
C383        C  0.22715137  0.57124070  0.06359739    -0.20300
C384        C  0.22971444  0.54720838  0.08628440    -0.20300
C385        C  0.24687994  0.55554482  0.92275202    -0.21300
C386        C  0.24502766  0.57801680  0.94638184    -0.21300
C387        C  0.25397784  0.40861357  0.06076750    -0.21300
C388        C  0.25576704  0.43145686  0.08426805    -0.21300
C389        C  0.24608515  0.49594190  0.92130028    -0.16700
C390        C  0.24355893  0.40962752  0.00212168    -0.16700
C391        C  0.24640440  0.49024492  0.08594715    -0.16700
C392        C  0.23766555  0.57582452  0.00526953    -0.16700
H393        H  0.24255091  0.43269524  0.89436880     0.16200
H394        H  0.23971494  0.38666553  0.93770098     0.16200
H395        H  0.21998322  0.59564149  0.06806176     0.16200
H396        H  0.22483288  0.54957029  0.11157385     0.16200
H397        H  0.25029947  0.56071151  0.89754197     0.14500
H398        H  0.24676890  0.60375690  0.94288669     0.14500
H399        H  0.25772891  0.38315759  0.06415432     0.14500
H400        H  0.26071216  0.42692687  0.10936047     0.14500
H401        H  0.24570577  0.47581220  0.98580069     0.27800
H402        H  0.25461835  0.51240628  0.02255354     0.27800
N403        N  0.25922437  0.49217010  0.22439489    -0.01900
C404        C  0.26154165  0.46589594  0.24389625     0.00700
C405        C  0.26910211  0.47464112  0.27484195    -0.22200
C406        C  0.27119227  0.50731759  0.27494910    -0.22400
C407        C  0.26533291  0.51764054  0.24396340     0.00600
H408        H  0.27162844  0.45884355  0.29540251     0.14400
H409        H  0.27579321  0.52217209  0.29563117     0.14400
N410        N  0.49851549  0.77618856  0.28867261    -0.01900
C411        C  0.47316119  0.75811770  0.29967520     0.00700
C412        C  0.48389225  0.73074425  0.31492163    -0.22200
C413        C  0.51680910  0.73172235  0.31327949    -0.22400
C414        C  0.52528083  0.75960180  0.29692512     0.00600
H415        H  0.46923863  0.71113731  0.32430430     0.14400
H416        H  0.53281235  0.71286688  0.32091829     0.14400
N417        N  0.71846556  0.99601043  0.22557539    -0.01900
C418        C  0.73638338  0.97043303  0.21664848     0.00700
C419        C  0.76535826  0.98066695  0.20380284    -0.22200
C420        C  0.76570233  0.01343801  0.20478112    -0.22400
C421        C  0.73705703  0.02240342  0.21852310     0.00600
H422        H  0.78489663  0.96575379  0.19613629     0.14400
H423        H  0.78561408  0.02911839  0.19803140     0.14400
N424        N  0.27379748  0.99198303  0.24235965    -0.01900
C425        C  0.25403865  0.96617498  0.23656765     0.00700
C426        C  0.22265613  0.97568772  0.23210807    -0.22200
C427        C  0.22270304  0.00828419  0.23491343    -0.22400
C428        C  0.25405070  0.01777847  0.24141042     0.00600
H429        H  0.20181505  0.96035738  0.22790456     0.14400
H430        H  0.20189847  0.02351756  0.23329390     0.14400
N431        N  0.53239663  0.95999616  0.25273191    -0.35000
N432        N  0.46147648  0.95951793  0.25495557    -0.55600
N433        N  0.46223662  0.02940040  0.24970584    -0.35000
N434        N  0.53334309  0.02997477  0.25155818    -0.55600
C435        C  0.52679714  0.92865497  0.26001512     0.28600
C436        C  0.56448243  0.96570094  0.25576020     0.28600
C437        C  0.42997442  0.02420634  0.25147333     0.28600
C438        C  0.46790731  0.06141763  0.25182733     0.28600
C439        C  0.46622542  0.92748169  0.25643814     0.37200
C440        C  0.42927926  0.96378982  0.25282112     0.37200
C441        C  0.56523274  0.02532877  0.24740735     0.37200
C442        C  0.52847115  0.06185824  0.24806453     0.37200
C443        C  0.55587187  0.91414706  0.26709651    -0.20300
C444        C  0.57957092  0.93742561  0.26426348    -0.20300
C445        C  0.41489119  0.05356641  0.25365800    -0.20300
C446        C  0.43871143  0.07687203  0.25439028    -0.20300
C447        C  0.43681759  0.91129469  0.25566661    -0.21300
C448        C  0.41350559  0.93419196  0.25342827    -0.21300
C449        C  0.58071014  0.05450164  0.24146653    -0.21300
C450        C  0.55753729  0.07760245  0.24222235    -0.21300
C451        C  0.49643783  0.91235829  0.26003919    -0.16700
C452        C  0.58089019  0.99535885  0.24996102    -0.16700
C453        C  0.49845492  0.07742009  0.25072922    -0.16700
C454        C  0.41357953  0.99387413  0.25120276    -0.16700
H455        H  0.55972246  0.88929334  0.27362873     0.16200
H456        H  0.60504421  0.93394577  0.26821889     0.16200
H457        H  0.38934269  0.05792960  0.25494996     0.16200
H458        H  0.43480319  0.10239569  0.25626368     0.16200
H459        H  0.43253891  0.88561806  0.25686470     0.14500
H460        H  0.38782515  0.92949098  0.25265001     0.14500
H461        H  0.60610229  0.05881436  0.23727089     0.14500
H462        H  0.56159097  0.10309380  0.23851332     0.14500
H463        H  0.51581537  0.97571243  0.24323995     0.27800
H464        H  0.47932862  0.01232336  0.24564019     0.27800
N465        N  0.49627614  0.21524108  0.26752353    -0.01900
C466        C  0.52166478  0.23451612  0.27621997     0.00700
C467        C  0.51098629  0.26361440  0.28705658    -0.22200
C468        C  0.47808656  0.26250554  0.28509814    -0.22400
C469        C  0.46952570  0.23281363  0.27295451     0.00600
H470        H  0.52568557  0.28408423  0.29400523     0.14400
H471        H  0.46208248  0.28204426  0.29008875     0.14400
N472        N  0.78477319  0.27649857  0.49066477    -0.01900
C473        C  0.76713866  0.28348389  0.46387258     0.00700
C474        C  0.73827866  0.29717848  0.47188764    -0.22200
C475        C  0.73789298  0.29932039  0.50442697    -0.22400
C476        C  0.76637332  0.28657968  0.51540270     0.00600
H477        H  0.71912194  0.30403447  0.45568669     0.14400
H478        H  0.71814359  0.30758741  0.51880778     0.14400
N479        N  0.00291777  0.23541616  0.71534042    -0.01900
C480        C  0.97624278  0.23105817  0.73398292     0.00700
C481        C  0.98474784  0.22750621  0.76580071    -0.22200
C482        C  0.01751378  0.22946480  0.76724896    -0.22400
C483        C  0.02814806  0.23450910  0.73632442     0.00600
H484        H  0.96863222  0.22473300  0.78595556     0.14400
H485        H  0.03213452  0.22852990  0.78874442     0.14400
N486        N  0.99658913  0.21520133  0.27440186    -0.01900
C487        C  0.02146701  0.20460529  0.25637898     0.00700
C488        C  0.01033932  0.19193612  0.22793888    -0.22200
C489        C  0.97760426  0.19473247  0.22813219    -0.22400
C490        C  0.96968979  0.20932133  0.25654563     0.00600
H491        H  0.02467721  0.18319020  0.20841419     0.14400
H492        H  0.96137929  0.18878849  0.20864978     0.14400
N493        N  0.03812972  0.24139504  0.45806040    -0.35000
N494        N  0.03937270  0.24222909  0.52807091    -0.55600
N495        N  0.96897524  0.24069638  0.52887641    -0.35000
N496        N  0.96800958  0.24367408  0.45872851    -0.55600
C497        C  0.07003005  0.24697927  0.46269274     0.28600
C498        C  0.03214898  0.24374108  0.42621456     0.28600
C499        C  0.97530811  0.24486166  0.56042769     0.28600
C500        C  0.93796946  0.24909993  0.52362499     0.28600
C501        C  0.07153505  0.24255429  0.52285293     0.37200
C502        C  0.03509020  0.23825995  0.56000586     0.37200
C503        C  0.97208298  0.23762926  0.42726129     0.37200
C504        C  0.93602081  0.24149635  0.46433701     0.37200
C505        C  0.08455778  0.25217072  0.43315886    -0.20300
C506        C  0.06072702  0.25013883  0.41024823    -0.20300
C507        C  0.94775139  0.25512871  0.57556142    -0.20300
C508        C  0.92433400  0.25806703  0.55235600    -0.20300
C509        C  0.08770102  0.23941406  0.55183894    -0.21300
C510        C  0.06471463  0.23604277  0.57516704    -0.21300
C511        C  0.94246028  0.23171854  0.41283559    -0.21300
C512        C  0.91962875  0.23448878  0.43624524    -0.21300
C513        C  0.08673258  0.24682557  0.49258263    -0.16700
C514        C  0.00190462  0.23890714  0.41089005    -0.16700
C515        C  0.92110951  0.24769458  0.49396993    -0.16700
C516        C  0.00516254  0.23969746  0.57618041    -0.16700
H517        H  0.10981175  0.25671549  0.42843656     0.16200
H518        H  0.06410325  0.25299222  0.38469206     0.16200
H519        H  0.94492756  0.26051123  0.60067652     0.16200
H520        H  0.89994786  0.26580332  0.55628859     0.16200
H521        H  0.11341110  0.23966018  0.55599227     0.14500
H522        H  0.06939417  0.23346720  0.60056574     0.14500
H523        H  0.93769352  0.22640593  0.38793412     0.14500
H524        H  0.89388681  0.23163100  0.43298384     0.14500
H525        H  0.02179705  0.23379122  0.47520577     0.27800
H526        H  0.98405469  0.22995084  0.51261414     0.27800
N527        N  0.22397677  0.27527045  0.49546223    -0.01900
C528        C  0.24270626  0.28540686  0.47048006     0.00700
C529        C  0.27105703  0.29914916  0.48144451    -0.22200
C530        C  0.27001744  0.29763034  0.51417236    -0.22400
C531        C  0.24109037  0.28292312  0.52225895     0.00600
H532        H  0.29112090  0.30766612  0.46709313     0.14400
H533        H  0.28914308  0.30474865  0.53042019     0.14400
Zn534      Zn  0.27018592  0.21783715  0.21798562     1.49700
Zn535      Zn  0.27487512  0.27162974  0.27040867     1.49400
Zn536      Zn  0.21287531  0.26652065  0.22632276     1.49100
Zn537      Zn  0.22684952  0.21393871  0.27971862     1.49500
O538        O  0.24602805  0.24258372  0.24834446    -1.82500
O539        O  0.31800037  0.22255348  0.22621691    -0.73100
O540        O  0.27035915  0.31597281  0.25141958    -0.73000
O541        O  0.21607302  0.26128054  0.17859281    -0.72500
O542        O  0.32068749  0.25632277  0.26714941    -0.73200
O543        O  0.25922878  0.23115598  0.17227319    -0.72800
O544        O  0.22014605  0.31373901  0.23234586    -0.73300
O545        O  0.17894512  0.21117693  0.27372098    -0.72700
O546        O  0.26313496  0.27404679  0.31728803    -0.73500
O547        O  0.16853866  0.25221311  0.24106788    -0.72900
O548        O  0.23230850  0.23062631  0.32417996    -0.73300
O549        O  0.24561873  0.16997665  0.27601768    -0.73300
O550        O  0.26167255  0.17063569  0.22554713    -0.73000
C551        C  0.33397695  0.23717781  0.24784224     0.78700
C552        C  0.24564476  0.32949079  0.23953758     0.79200
C553        C  0.23653498  0.24804646  0.16063478     0.78200
C554        C  0.15902367  0.22902202  0.25903600     0.78600
C555        C  0.24629531  0.25552143  0.33525619     0.79700
C556        C  0.25600377  0.15537491  0.25159797     0.78800
C557        C  0.23823249  0.27723470  0.43611782    -0.03700
C558        C  0.23621141  0.30198346  0.41278085    -0.00800
C559        C  0.23793001  0.29483772  0.37987394     0.04100
C560        C  0.24276638  0.26296131  0.36986888    -0.03700
C561        C  0.24510623  0.23825577  0.39319343    -0.00800
C562        C  0.24345172  0.24546733  0.42606854     0.04100
C563        C  0.23497619  0.33527767  0.42239585     0.38800
C564        C  0.25180731  0.20562769  0.38360978     0.38800
C565        C  0.25174685  0.22080748  0.44922937     0.37200
C566        C  0.23500488  0.32055974  0.35637237     0.37200
N567        N  0.25960426  0.20068892  0.46671377    -0.37600
N568        N  0.23284328  0.34114821  0.33771698    -0.37600
N569        N  0.25723379  0.17963628  0.37604529    -0.37100
N570        N  0.23470160  0.36210007  0.42927853    -0.37100
C571        C  0.12250303  0.25346506  0.49224298    -0.03700
C572        C  0.13425161  0.28487640  0.48594066    -0.00800
C573        C  0.16763931  0.29163451  0.48645264     0.04100
C574        C  0.18985919  0.26732926  0.49394664    -0.03700
C575        C  0.17807229  0.23606206  0.50105273    -0.00800
C576        C  0.14466055  0.22895050  0.49922510     0.04100
C577        C  0.11182414  0.31047465  0.47932748     0.38800
C578        C  0.19981835  0.21130653  0.51147507     0.38800
C579        C  0.13291419  0.19646194  0.50512473     0.37200
C580        C  0.17888647  0.32439434  0.48181331     0.37200
N581        N  0.12345152  0.17060474  0.50999659    -0.37600
N582        N  0.18703651  0.35095258  0.47909384    -0.37600
N583        N  0.21607691  0.19077081  0.52042703    -0.37100
N584        N  0.09390904  0.33080412  0.47386362    -0.37100
C585        C  0.05639616  0.21038448  0.26251518    -0.03700
C586        C  0.06874119  0.24212499  0.26370349    -0.00800
C587        C  0.10220146  0.24794417  0.26528686     0.04100
C588        C  0.12388499  0.22236112  0.26253476    -0.03700
C589        C  0.11162026  0.19052204  0.26124938    -0.00800
C590        C  0.07808764  0.18458412  0.26134347     0.04100
C591        C  0.04769146  0.26910340  0.25862158     0.38800
C592        C  0.13332120  0.16380044  0.25795325     0.38800
C593        C  0.06609854  0.15189205  0.25792833     0.37200
C594        C  0.11413494  0.28046270  0.27000135     0.37200
N595        N  0.05696348  0.12572211  0.25477382    -0.37600
N596        N  0.12328365  0.30646419  0.27412228    -0.37600
N597        N  0.15059001  0.14248916  0.25530576    -0.37100
N598        N  0.03188109  0.29113252  0.25332257    -0.37100
C599        C  0.00154831  0.23376788  0.37535539    -0.03700
C600        C  0.99108024  0.25798841  0.35400460    -0.00800
C601        C  0.98902491  0.25206705  0.32071588     0.04100
C602        C  0.99797892  0.22198132  0.30844463    -0.03700
C603        C  0.00770264  0.19765445  0.33013576    -0.00800
C604        C  0.01008993  0.20369395  0.36320744     0.04100
C605        C  0.98233356  0.28899769  0.36645343     0.38800
C606        C  0.01212902  0.16528410  0.31894442     0.38800
C607        C  0.02068098  0.17861180  0.38500700     0.37200
C608        C  0.97695612  0.27683698  0.29958107     0.37200
N609        N  0.02929379  0.15876915  0.40247836    -0.37600
N610        N  0.96697000  0.29722622  0.28355711    -0.37600
N611        N  0.01477977  0.13899309  0.31089032    -0.37100
N612        N  0.97533849  0.31369850  0.37647579    -0.37100
C613        C  0.00426085  0.23652311  0.68050943    -0.03700
C614        C  0.99451471  0.20941918  0.66249025    -0.00800
C615        C  0.99504913  0.21038092  0.62862167     0.04100
C616        C  0.00525837  0.23847027  0.61222051    -0.03700
C617        C  0.01539366  0.26540989  0.63001431    -0.00800
C618        C  0.01554189  0.26426491  0.66388530     0.04100
C619        C  0.98573271  0.17969901  0.67863997     0.38800
C620        C  0.02530635  0.29457724  0.61325214     0.38800
C621        C  0.02709488  0.29209240  0.68106702     0.37200
C622        C  0.98543475  0.18226135  0.61050628     0.37200
N623        N  0.03646039  0.31526864  0.69322672    -0.37600
N624        N  0.97778829  0.15985262  0.59601515    -0.37600
N625        N  0.03316238  0.31776885  0.59974286    -0.37100
N626        N  0.97931464  0.15530091  0.69064327    -0.37100
C627        C  0.81880544  0.26884688  0.49211274    -0.03700
C628        C  0.82962615  0.23889780  0.50400213    -0.00800
C629        C  0.86286650  0.23180113  0.50418638     0.04100
C630        C  0.88574367  0.25484166  0.49354808    -0.03700
C631        C  0.87515987  0.28509360  0.48281757    -0.00800
C632        C  0.84202584  0.29213636  0.48245426     0.04100
C633        C  0.80720287  0.21525509  0.51673548     0.38800
C634        C  0.89858340  0.30921547  0.47250800     0.38800
C635        C  0.83216726  0.32435091  0.47442237     0.37200
C636        C  0.87368858  0.20058001  0.51503280     0.37200
N637        N  0.82531042  0.35060318  0.46880558    -0.37600
N638        N  0.88244505  0.17569294  0.52359325    -0.37600
N639        N  0.91733951  0.32833897  0.46420465    -0.37100
N640        N  0.79075473  0.19521081  0.52737297    -0.37100
C641        C  0.36896092  0.23158914  0.25086426    -0.03700
C642        C  0.38076129  0.21033396  0.27454558    -0.00800
C643        C  0.41430763  0.20741886  0.27950529     0.04100
C644        C  0.43612901  0.22630955  0.26122226    -0.03700
C645        C  0.42409662  0.24593670  0.23611145    -0.00800
C646        C  0.39069243  0.24851680  0.23097850     0.04100
C647        C  0.35825539  0.19260558  0.29478210     0.38800
C648        C  0.44610322  0.26511877  0.21663767     0.38800
C649        C  0.37861876  0.27039013  0.20667280     0.37200
C650        C  0.42597978  0.18615435  0.30444850     0.37200
N651        N  0.36904768  0.28807976  0.18748187    -0.37600
N652        N  0.43441083  0.16872442  0.32441279    -0.37600
N653        N  0.46353117  0.28050150  0.20107067    -0.37100
N654        N  0.34021530  0.17868480  0.31099779    -0.37100
C655        C  0.49727096  0.18086326  0.26255882    -0.03700
C656        C  0.48954164  0.16725474  0.23258284    -0.00800
C657        C  0.49082596  0.13363107  0.22834840     0.04100
C658        C  0.49910519  0.11327315  0.25421991    -0.03700
C659        C  0.50654980  0.12679285  0.28420862    -0.00800
C660        C  0.50520838  0.16028151  0.28844289     0.04100
C661        C  0.47936407  0.18742621  0.20620313     0.38800
C662        C  0.51502952  0.10602857  0.31095435     0.38800
C663        C  0.50910208  0.17318361  0.32027841     0.37200
C664        C  0.48348905  0.11980953  0.19739728     0.37200
N665        N  0.51115306  0.18260386  0.34616898    -0.37600
N666        N  0.47765900  0.10869167  0.17272751    -0.37600
N667        N  0.52194888  0.08938253  0.33215324    -0.37100
N668        N  0.47077004  0.20254452  0.18450308    -0.37100
C669        C  0.26217740  0.05177847  0.24880127    -0.03700
C670        C  0.24564309  0.06651714  0.27409103    -0.00800
C671        C  0.24430528  0.10021298  0.27588169     0.04100
C672        C  0.26091635  0.11978418  0.25311151    -0.03700
C673        C  0.28100737  0.10469893  0.23051826    -0.00800
C674        C  0.28021488  0.07101975  0.22728553     0.04100
C675        C  0.22816239  0.04684934  0.29736046     0.38800
C676        C  0.30261707  0.12356037  0.21027125     0.38800
C677        C  0.29523101  0.05699177  0.19964331     0.37200
C678        C  0.22420950  0.11412722  0.30029156     0.37200
N679        N  0.30705251  0.04714951  0.17681833    -0.37600
N680        N  0.20807182  0.12500504  0.31976688    -0.37600
N681        N  0.32002623  0.13845900  0.19421639    -0.37100
N682        N  0.21429170  0.03119971  0.31591323    -0.37100
C683        C  0.30872825  0.99226455  0.24503947    -0.03700
C684        C  0.32770514  0.98391766  0.21846255    -0.00800
C685        C  0.36167439  0.98528993  0.22031499     0.04100
C686        C  0.37729928  0.99351260  0.24923652    -0.03700
C687        C  0.35845499  0.00136895  0.27602461    -0.00800
C688        C  0.32444683  0.00177943  0.27363062     0.04100
C689        C  0.31245878  0.97599913  0.18828883     0.38800
C690        C  0.37418493  0.00924648  0.30607304     0.38800
C691        C  0.30594302  0.01199526  0.30081228     0.37200
C692        C  0.38070670  0.97888090  0.19213844     0.37200
N693        N  0.29205904  0.02022664  0.32313831    -0.37600
N694        N  0.39590828  0.97391142  0.16964478    -0.37600
N695        N  0.38679271  0.01563026  0.32999015    -0.37100
N696        N  0.30121350  0.97038127  0.16355082    -0.37100
C697        C  0.68422740  0.99531575  0.23274133    -0.03700
C698        C  0.67219328  0.00705887  0.26194841    -0.00800
C699        C  0.63865145  0.00628628  0.26811327     0.04100
C700        C  0.61673236  0.99462046  0.24482452    -0.03700
C701        C  0.62870164  0.98329597  0.21559086    -0.00800
C702        C  0.66204694  0.98416506  0.20939563     0.04100
C703        C  0.69393531  0.02086386  0.28538856     0.38800
C704        C  0.60643916  0.97146590  0.19138177     0.38800
C705        C  0.67298601  0.97722957  0.17741600     0.37200
C706        C  0.62658748  0.01750234  0.29844667     0.37200
N707        N  0.68059479  0.97276359  0.15126730    -0.37600
N708        N  0.61694481  0.02644223  0.32266081    -0.37600
N709        N  0.58860846  0.96188156  0.17223724    -0.37100
N710        N  0.71068146  0.03234884  0.30446048    -0.37100
C711        C  0.49766170  0.81012405  0.28078551    -0.03700
C712        C  0.50542712  0.82173968  0.24982962    -0.00800
C713        C  0.50345280  0.85489145  0.24259214     0.04100
C714        C  0.49624484  0.87693461  0.26685691    -0.03700
C715        C  0.49073479  0.86559624  0.29828293    -0.00800
C716        C  0.49089599  0.83238516  0.30508703     0.04100
C717        C  0.51746791  0.80022968  0.22592556     0.38800
C718        C  0.48642318  0.88836164  0.32390333     0.38800
C719        C  0.48756828  0.82140318  0.33792174     0.37200
C720        C  0.50919469  0.86648556  0.21024407     0.37200
N721        N  0.48593182  0.81328259  0.36443700    -0.37600
N722        N  0.51359642  0.87576215  0.18440148    -0.37600
N723        N  0.48335573  0.90666397  0.34426517    -0.37100
N724        N  0.52797635  0.78393080  0.20644115    -0.37100
C725        C  0.25354280  0.43209870  0.23603050    -0.03700
C726        C  0.27462554  0.41362570  0.21764361    -0.00800
C727        C  0.27081192  0.37992360  0.21706722     0.04100
C728        C  0.24625269  0.36469711  0.23519480    -0.03700
C729        C  0.22364542  0.38333440  0.25137030    -0.00800
C730        C  0.22758964  0.41684002  0.25229010     0.04100
C731        C  0.30175770  0.42869931  0.20145413     0.38800
C732        C  0.19733290  0.36801351  0.26873666     0.38800
C733        C  0.20572517  0.43550517  0.27143135     0.37200
C734        C  0.29211677  0.36084114  0.19782638     0.37200
N735        N  0.18830757  0.45036827  0.28665424    -0.37600
N736        N  0.30891784  0.34563928  0.18225697    -0.37600
N737        N  0.17626173  0.35600290  0.28261712    -0.37100
N738        N  0.32376313  0.44004228  0.18847827    -0.37100
C739        C  0.25535296  0.49233290  0.18973681    -0.03700
C740        C  0.22727308  0.47929873  0.17503530    -0.00800
C741        C  0.22445276  0.47838502  0.14129112     0.04100
C742        C  0.24964850  0.49020237  0.12177391    -0.03700
C743        C  0.27786595  0.50262028  0.13621616    -0.00800
C744        C  0.28075650  0.50359295  0.16990630     0.04100
C745        C  0.20070761  0.46724199  0.19414108     0.38800
C746        C  0.30438148  0.51364030  0.11622072     0.38800
C747        C  0.31108165  0.51390423  0.18382316     0.37200
C748        C  0.19551571  0.46528203  0.12645731     0.37200
N749        N  0.33607797  0.52157126  0.19365275    -0.37600
N750        N  0.17258191  0.45469572  0.11447991    -0.37600
N751        N  0.32551965  0.52234852  0.10023725    -0.37100
N752        N  0.17855597  0.45758598  0.20812261    -0.37100
C753        C  0.23032649  0.25668487  0.05731408    -0.03700
C754        C  0.20261697  0.24875742  0.07561452    -0.00800
C755        C  0.20430173  0.24723912  0.10937203     0.04100
C756        C  0.23393289  0.25266980  0.12529118    -0.03700
C757        C  0.26134605  0.26156820  0.10717977    -0.00800
C758        C  0.25973898  0.26288721  0.07340496     0.04100
C759        C  0.17290221  0.23912868  0.05974181     0.38800
C760        C  0.29151510  0.26906102  0.12328623     0.38800
C761        C  0.28938443  0.26642947  0.05553076     0.37200
C762        C  0.17589917  0.23784375  0.12752587     0.37200
N763        N  0.31371938  0.26838101  0.04228037    -0.37600
N764        N  0.15325014  0.23032343  0.14196376    -0.37600
N765        N  0.31558810  0.27510646  0.13606455    -0.37100
N766        N  0.14920091  0.23094167  0.04740221    -0.37100
C767        C  0.24207596  0.37346189  0.00138333    -0.03700
C768        C  0.21306001  0.35694270  0.00851994    -0.00800
C769        C  0.21121032  0.32304039  0.00705083     0.04100
C770        C  0.23838274  0.30504043  0.99834946    -0.03700
C771        C  0.26733466  0.32180302  0.99080213    -0.00800
C772        C  0.26925866  0.35570467  0.99277022     0.04100
C773        C  0.18487086  0.37505784  0.01698123     0.38800
C774        C  0.29558715  0.30459841  0.98136114     0.38800
C775        C  0.29938398  0.37248816  0.98613409     0.37200
C776        C  0.18055276  0.30710694  0.01264745     0.37200
N777        N  0.32341247  0.38591623  0.98090485    -0.37600
N778        N  0.15532309  0.29561852  0.01650018    -0.37600
N779        N  0.31906023  0.29223251  0.97387314    -0.37100
N780        N  0.16247423  0.38961895  0.02375342    -0.37100
C781        C  0.27108559  0.50032993  0.82048610    -0.03700
C782        C  0.23981838  0.49028135  0.82993674    -0.00800
C783        C  0.23107000  0.49039981  0.86261066     0.04100
C784        C  0.25435597  0.49732043  0.88635767    -0.03700
C785        C  0.28614069  0.50521285  0.87709493    -0.00800
C786        C  0.29427089  0.50734769  0.84440742     0.04100
C787        C  0.21691286  0.47835156  0.80658859     0.38800
C788        C  0.31068882  0.51052081  0.90141543     0.38800
C789        C  0.32746309  0.51354180  0.83559703     0.37200
C790        C  0.19813024  0.48321736  0.87189838     0.37200
N791        N  0.35432322  0.51759264  0.82936823    -0.37600
N792        N  0.17183142  0.47758017  0.87932554    -0.37600
N793        N  0.33012305  0.51466993  0.92094196    -0.37100
N794        N  0.19805110  0.46825528  0.78870526    -0.37100
C795        C  0.23582540  0.61191180  0.00615383    -0.03700
C796        C  0.26256588  0.63063450  0.01625447    -0.00800
C797        C  0.26161118  0.66461481  0.01496083     0.04100
C798        C  0.23380163  0.68036077  0.00367870    -0.03700
C799        C  0.20680434  0.66139797  0.99427932    -0.00800
C800        C  0.20778419  0.62750079  0.99563085     0.04100
C801        C  0.29101740  0.61475321  0.02830770     0.38800
C802        C  0.17678075  0.67646798  0.98589572     0.38800
C803        C  0.17941796  0.60850555  0.98733093     0.37200
C804        C  0.28939884  0.68315143  0.02532088     0.37200
N805        N  0.15674597  0.59335868  0.98090887    -0.37600
N806        N  0.31203426  0.69720010  0.03389728    -0.37600
N807        N  0.15200654  0.68724851  0.97979753    -0.37100
N808        N  0.31350293  0.60187302  0.03816916    -0.37100
C809        C  0.06266380  0.24144432  0.72989248    -0.03700
C810        C  0.08260528  0.21723765  0.71803692    -0.00800
C811        C  0.11638679  0.22013940  0.72128028     0.04100
C812        C  0.13037132  0.24790290  0.73505528    -0.03700
C813        C  0.11055692  0.27319909  0.74453345    -0.00800
C814        C  0.07687812  0.26940519  0.74329277     0.04100
C815        C  0.06852331  0.18830391  0.70460353     0.38800
C816        C  0.12476842  0.30249557  0.75727474     0.38800
C817        C  0.05687906  0.29337722  0.75800035     0.37200
C818        C  0.13677398  0.19433807  0.71089170     0.37200
N819        N  0.04092881  0.31236208  0.76986443    -0.37600
N820        N  0.15306131  0.17370582  0.70278629    -0.37600
N821        N  0.13611749  0.32593558  0.76719601    -0.37100
N822        N  0.05792812  0.16494787  0.69378138    -0.37100
C823        C  0.23880905  0.26224369  0.62313542    -0.03700
C824        C  0.21617398  0.28376439  0.60951317    -0.00800
C825        C  0.21469489  0.28874207  0.57599899     0.04100
C826        C  0.23488167  0.27156165  0.55557453    -0.03700
C827        C  0.25527829  0.24802518  0.56877804    -0.00800
C828        C  0.25755240  0.24354659  0.60220959     0.04100
C829        C  0.19446773  0.30139324  0.62973842     0.38800
C830        C  0.27566064  0.22955944  0.54791805     0.38800
C831        C  0.28094756  0.22100557  0.61460614     0.37200
C832        C  0.19373210  0.31313832  0.56303754     0.37200
N833        N  0.29969244  0.20304940  0.62428404    -0.37600
N834        N  0.17672773  0.33295165  0.55385251    -0.37600
N835        N  0.29206925  0.21472827  0.53159945    -0.37100
N836        N  0.17719059  0.31560743  0.64573695    -0.37100
C837        C  0.27409866  0.44262016  0.77166806    -0.03700
C838        C  0.28578230  0.42060183  0.79454632    -0.00800
C839        C  0.27794665  0.38762170  0.79192759     0.04100
C840        C  0.26034278  0.37605698  0.76503027    -0.03700
C841        C  0.24596383  0.39869640  0.74402665    -0.00800
C842        C  0.25260720  0.43173430  0.74761844     0.04100
C843        C  0.30748925  0.43114968  0.81970423     0.38800
C844        C  0.22519366  0.38848536  0.71787790     0.38800
C845        C  0.23799863  0.45471591  0.72576328     0.37200
C846        C  0.28769313  0.36580654  0.81738797     0.37200
N847        N  0.22635151  0.47312259  0.70850863    -0.37600
N848        N  0.29524051  0.34851841  0.83784871    -0.37600
N849        N  0.20847161  0.38059746  0.69705509    -0.37100
N850        N  0.32502208  0.43848934  0.84005140    -0.37100
C851        C  0.25131878  0.25821004  0.86962487    -0.03700
C852        C  0.27608945  0.24632053  0.88942023    -0.00800
C853        C  0.27278639  0.24663734  0.92300610     0.04100
C854        C  0.24512817  0.25983442  0.93727182    -0.03700
C855        C  0.22135384  0.27358002  0.91737656    -0.00800
C856        C  0.22456347  0.27294257  0.88370162     0.04100
C857        C  0.30414725  0.23190332  0.87524692     0.38800
C858        C  0.19213391  0.28581440  0.93108923     0.38800
C859        C  0.20018013  0.28733821  0.86340569     0.37200
C860        C  0.29694216  0.23118174  0.94281723     0.37200
N861        N  0.18087098  0.29888169  0.84710568    -0.37600
N862        N  0.31619480  0.21879476  0.95854671    -0.37600
N863        N  0.16831859  0.29549653  0.94110110    -0.37100
N864        N  0.32653814  0.22044894  0.86396020    -0.37100
C865        C  0.37644954  0.24613738  0.73001169    -0.03700
C866        C  0.38878955  0.22228860  0.70941811    -0.00800
C867        C  0.42191217  0.22181360  0.70197328     0.04100
C868        C  0.44348182  0.24368164  0.71649133    -0.03700
C869        C  0.43176315  0.26563769  0.73906684    -0.00800
C870        C  0.39851046  0.26756681  0.74512537     0.04100
C871        C  0.36767211  0.19800275  0.69549758     0.38800
C872        C  0.45405484  0.28725439  0.75540506     0.38800
C873        C  0.38733610  0.29307067  0.76552177     0.37200
C874        C  0.43310719  0.19993870  0.67786014     0.37200
N875        N  0.37862380  0.31357958  0.78165375    -0.37600
N876        N  0.44086560  0.18224821  0.65829210    -0.37600
N877        N  0.47182449  0.30445145  0.76838409    -0.37100
N878        N  0.35094212  0.17862167  0.68431352    -0.37100
C879        C  0.50150071  0.12845511  0.72877464    -0.03700
C880        C  0.50902356  0.14132672  0.69830450    -0.00800
C881        C  0.50986952  0.17490684  0.69313160     0.04100
C882        C  0.50278690  0.19618916  0.71821199    -0.03700
C883        C  0.49341400  0.18319342  0.74821121    -0.00800
C884        C  0.49358357  0.14955460  0.75368986     0.04100
C885        C  0.51460193  0.11985300  0.67186310     0.38800
C886        C  0.48217106  0.20405337  0.77307550     0.38800
C887        C  0.48539597  0.13648518  0.78494551     0.37200
C888        C  0.51480211  0.18741768  0.66103939     0.37200
N889        N  0.47892087  0.12591479  0.80986156    -0.37600
N890        N  0.51759985  0.19677867  0.63501953    -0.37600
N891        N  0.47247280  0.21999348  0.79327068    -0.37100
N892        N  0.51876794  0.10272419  0.65070662    -0.37100
C893        C  0.26895668  0.06315412  0.76590765    -0.03700
C894        C  0.26702664  0.08433680  0.79207393    -0.00800
C895        C  0.26594404  0.11779260  0.78694543     0.04100
C896        C  0.26394112  0.13058494  0.75550597    -0.03700
C897        C  0.26615525  0.10949173  0.72923575    -0.00800
C898        C  0.26879191  0.07601915  0.73445599     0.04100
C899        C  0.26278031  0.07186139  0.82435624     0.38800
C900        C  0.26314103  0.12171231  0.69669686     0.38800
C901        C  0.26699809  0.05472748  0.70725884     0.37200
C902        C  0.26660602  0.13900026  0.81434398     0.37200
N903        N  0.26477930  0.03842127  0.68509229    -0.37600
N904        N  0.26718257  0.15594367  0.83612964    -0.37600
N905        N  0.26059873  0.13128748  0.67071164    -0.37100
N906        N  0.25849655  0.06259898  0.85022593    -0.37100
C907        C  0.31543918  0.00359864  0.75957809    -0.03700
C908        C  0.32946037  0.99493139  0.73012002    -0.00800
C909        C  0.36324654  0.99717717  0.72583371     0.04100
C910        C  0.38353722  0.00722781  0.75110024    -0.03700
C911        C  0.36982031  0.01459796  0.78086436    -0.00800
C912        C  0.33608453  0.01275801  0.78507880     0.04100
C913        C  0.30974610  0.98315160  0.70406880     0.38800
C914        C  0.39067138  0.02304821  0.80753506     0.38800
C915        C  0.32300162  0.01793130  0.81656824     0.37200
C916        C  0.37737615  0.98893350  0.69537437     0.37200
N917        N  0.31363908  0.02125087  0.84232888    -0.37600
N918        N  0.38879084  0.98238739  0.67113766    -0.37600
N919        N  0.40737419  0.02959674  0.82881508    -0.37100
N920        N  0.29556097  0.97339155  0.68224897    -0.37100
C921        C  0.50611008  0.82244616  0.74829034    -0.03700
C922        C  0.51704974  0.84076834  0.77469843    -0.00800
C923        C  0.51654336  0.87474046  0.77353510     0.04100
C924        C  0.50371941  0.89090393  0.74662228    -0.03700
C925        C  0.49233127  0.87281479  0.72047876    -0.00800
C926        C  0.49433272  0.83895568  0.72092510     0.04100
C927        C  0.52757727  0.82513228  0.80385746     0.38800
C928        C  0.47903094  0.88924636  0.69274619     0.38800
C929        C  0.48625295  0.82163619  0.69211572     0.37200
C930        C  0.52934157  0.89324660  0.80008427     0.37200
N931        N  0.48044895  0.80921665  0.66809044    -0.37600
N932        N  0.53986138  0.90811090  0.82103586    -0.37600
N933        N  0.46825018  0.90242428  0.67076160    -0.37100
N934        N  0.53560732  0.81408412  0.82806225    -0.37100
C935        C  0.68869783  0.00967203  0.75783832    -0.03700
C936        C  0.66735037  0.99913379  0.78219089    -0.00800
C937        C  0.63369235  0.00004549  0.77741348     0.04100
C938        C  0.62078503  0.01158578  0.74823868    -0.03700
C939        C  0.64191627  0.02202960  0.72379775    -0.00800
C940        C  0.67564347  0.02134520  0.72861307     0.04100
C941        C  0.67982073  0.98959029  0.81321351     0.38800
C942        C  0.62882053  0.03300384  0.69343251     0.38800
C943        C  0.69668972  0.03183277  0.70291661     0.37200
C944        C  0.61215527  0.98954429  0.80282554     0.37200
N945        N  0.71283904  0.03993468  0.68173960    -0.37600
N946        N  0.59490635  0.98109251  0.82299671    -0.37600
N947        N  0.61827210  0.04171674  0.66923202    -0.37100
N948        N  0.68911138  0.98230072  0.83836172    -0.37100
C949        C  0.73521094  0.13805907  0.74258774    -0.03700
C950        C  0.75561549  0.11789726  0.72490548    -0.00800
C951        C  0.75520513  0.08456832  0.73066676     0.04100
C952        C  0.73489587  0.07083584  0.75440951    -0.03700
C953        C  0.71250928  0.09035602  0.76991469    -0.00800
C954        C  0.71192338  0.12365234  0.76319354     0.04100
C955        C  0.77838725  0.13106927  0.70177019     0.38800
C956        C  0.69174766  0.07705220  0.79462599     0.38800
C957        C  0.68711275  0.14294801  0.77746679     0.37200
C958        C  0.77706725  0.06441983  0.71304879     0.37200
N959        N  0.66722278  0.15834831  0.78862677    -0.37600
N960        N  0.79454204  0.04838602  0.69914333    -0.37600
N961        N  0.67501128  0.06727664  0.81465456    -0.37100
N962        N  0.79652818  0.14135890  0.68322877    -0.37100
C963        C  0.77042269  0.27874136  0.54977935    -0.03700
C964        C  0.75119104  0.25361185  0.56289176    -0.00800
C965        C  0.74834772  0.24995135  0.59621946     0.04100
C966        C  0.76263779  0.27280838  0.61673428    -0.03700
C967        C  0.78202739  0.29786755  0.60384132    -0.00800
C968        C  0.78625535  0.30058087  0.57036821     0.04100
C969        C  0.73227114  0.23286521  0.54202802     0.38800
C970        C  0.79762582  0.32076506  0.62501546     0.38800
C971        C  0.80534528  0.32689213  0.55713090     0.37200
C972        C  0.72953665  0.22328699  0.60934770     0.37200
N973        N  0.82062486  0.34806932  0.54695460    -0.37600
N974        N  0.71477622  0.20189114  0.61983021    -0.37600
N975        N  0.81003433  0.33903895  0.64192723    -0.37100
N976        N  0.71710385  0.21646979  0.52537381    -0.37100
C977        C  0.56349869  0.24367867  0.71087880    -0.03700
C978        C  0.58653710  0.24442272  0.68605043    -0.00800
C979        C  0.61966029  0.24771606  0.69312560     0.04100
C980        C  0.63038650  0.25086283  0.72519954    -0.03700
C981        C  0.60747456  0.24912815  0.75013119    -0.00800
C982        C  0.57423491  0.24632371  0.74295848     0.04100
C983        C  0.57622283  0.24452059  0.65280645     0.38800
C984        C  0.61771893  0.25280457  0.78318800     0.38800
C985        C  0.55127024  0.25086799  0.76842262     0.37200
C986        C  0.64259986  0.24843621  0.66699405     0.37200
N987        N  0.53386007  0.25566883  0.78928155    -0.37600
N988        N  0.66075341  0.24931796  0.64607226    -0.37600
N989        N  0.62579501  0.25573425  0.80956650    -0.37100
N990        N  0.56867940  0.24531040  0.62610915    -0.37100
C991        C  0.87423294  0.24228767  0.72570018    -0.03700
C992        C  0.88698241  0.21178352  0.73269387    -0.00800
C993        C  0.92055472  0.20735054  0.73243013     0.04100
C994        C  0.94177261  0.23315939  0.72440354    -0.03700
C995        C  0.92874307  0.26318491  0.71578182    -0.00800
C996        C  0.89511858  0.26748145  0.71577801     0.04100
C997        C  0.86579947  0.18540505  0.74241833     0.38800
C998        C  0.94951622  0.29103679  0.71105908     0.38800
C999        C  0.88199250  0.29814110  0.70594484     0.37200
C1000       C  0.93325917  0.17693977  0.74356844     0.37200
N1001       N  0.87150714  0.32253487  0.69800872    -0.37600
N1002       N  0.94311938  0.15279454  0.75301495    -0.37600
N1003       N  0.96488173  0.31423725  0.70794358    -0.37100
N1004       N  0.84897902  0.16433966  0.75016368    -0.37100
C1005       C  0.73234861  0.05599424  0.22926579    -0.03700
C1006       C  0.75534777  0.06973016  0.25041074    -0.00800
C1007       C  0.75708747  0.10321697  0.25473815     0.04100
C1008       C  0.73505639  0.12351520  0.23866493    -0.03700
C1009       C  0.71002515  0.10926454  0.22005749    -0.00800
C1010       C  0.70915246  0.07580506  0.21483640     0.04100
C1011       C  0.77804330  0.04929955  0.26721834     0.38800
C1012       C  0.68492283  0.12887474  0.20608509     0.38800
C1013       C  0.68534445  0.06238514  0.19312541     0.37200
C1014       C  0.78281795  0.11645889  0.27450721     0.37200
N1015       N  0.66599146  0.05261729  0.17559292    -0.37600
N1016       N  0.80338804  0.12681157  0.29029814    -0.37600
N1017       N  0.66492106  0.14450502  0.19493755    -0.37100
N1018       N  0.79612247  0.03306117  0.28059916    -0.37100
C1019       C  0.76586689  0.26168111  0.36392625    -0.03700
C1020       C  0.77076104  0.29368738  0.37398501    -0.00800
C1021       C  0.77394077  0.30065937  0.40678033     0.04100
C1022       C  0.77425147  0.27562196  0.42997013    -0.03700
C1023       C  0.77197535  0.24344367  0.41963913    -0.00800
C1024       C  0.76781948  0.23649453  0.38679897     0.04100
C1025       C  0.77210859  0.31978149  0.35065252     0.38800
C1026       C  0.76958814  0.21735418  0.44271277     0.38800
C1027       C  0.76292673  0.20340675  0.37704583     0.37200
C1028       C  0.77351401  0.33395857  0.41661458     0.37200
N1029       N  0.75895362  0.17704669  0.36928699    -0.37600
N1030       N  0.77227197  0.36063370  0.42387850    -0.37600
N1031       N  0.76687176  0.19559683  0.45995032    -0.37100
N1032       N  0.77322742  0.34061942  0.33213003    -0.37100
C1033       C  0.62391363  0.23298031  0.25763449    -0.03700
C1034       C  0.60154444  0.23278275  0.23197291    -0.00800
C1035       C  0.56809078  0.23148814  0.23805305     0.04100
C1036       C  0.55647328  0.22917894  0.26976757    -0.03700
C1037       C  0.57887996  0.22892556  0.29537897    -0.00800
C1038       C  0.61230106  0.22966599  0.28932109     0.04100
C1039       C  0.61268351  0.23615803  0.19921055     0.38800
C1040       C  0.56784402  0.23100657  0.32816578     0.38800
C1041       C  0.63472434  0.22680124  0.31593017     0.37200
C1042       C  0.54596175  0.23737036  0.21181272     0.37200
N1043       N  0.65254582  0.22429921  0.33715716    -0.37600
N1044       N  0.52916336  0.24323163  0.19046264    -0.37600
N1045       N  0.55966366  0.23355811  0.35444751    -0.37100
N1046       N  0.62147796  0.23877961  0.17305497    -0.37100
C1047       C  0.87044385  0.23609929  0.25523861    -0.03700
C1048       C  0.88212204  0.21569133  0.28026247    -0.00800
C1049       C  0.91525658  0.20887195  0.28278534     0.04100
C1050       C  0.93720293  0.22292079  0.26110928    -0.03700
C1051       C  0.92631192  0.24599084  0.23869527    -0.00800
C1052       C  0.89321599  0.25227131  0.23537715     0.04100
C1053       C  0.86034751  0.20119595  0.30357787     0.38800
C1054       C  0.94943001  0.26269504  0.21821195     0.38800
C1055       C  0.88301566  0.27413262  0.21018350     0.37200
C1056       C  0.92639597  0.18631690  0.30691592     0.37200
N1057       N  0.87518389  0.29157607  0.18996860    -0.37600
N1058       N  0.93466701  0.16835048  0.32647465    -0.37600
N1059       N  0.96801494  0.27601564  0.20212611    -0.37100
N1060       N  0.84313763  0.18944479  0.32216608    -0.37100
C1061       C  0.72550373  0.43629414  0.22780947    -0.03700
C1062       C  0.75743732  0.42511837  0.22944935    -0.00800
C1063       C  0.76353267  0.39181629  0.22981376     0.04100
C1064       C  0.73765023  0.36932381  0.22935832    -0.03700
C1065       C  0.70588071  0.38057437  0.22579553    -0.00800
C1066       C  0.69977786  0.41371568  0.22626608     0.04100
C1067       C  0.78385458  0.44743649  0.23540588     0.38800
C1068       C  0.67914821  0.35801293  0.22183552     0.38800
C1069       C  0.66671434  0.42410455  0.22827655     0.37200
C1070       C  0.79641613  0.38093684  0.23292684     0.37200
N1071       N  0.64014748  0.43157701  0.23070942    -0.37600
N1072       N  0.82267758  0.37236444  0.23532977    -0.37600
N1073       N  0.65788726  0.34002090  0.21861870    -0.37100
N1074       N  0.80533033  0.46446378  0.24114491    -0.37100
C1075       C  0.74534716  0.49535777  0.11600582    -0.03700
C1076       C  0.71469733  0.48744494  0.12842496    -0.00800
C1077       C  0.70913251  0.48843141  0.16169567     0.04100
C1078       C  0.73412719  0.49710430  0.18317358    -0.03700
C1079       C  0.76449818  0.50618856  0.17068459    -0.00800
C1080       C  0.77025734  0.50473903  0.13730283     0.04100
C1081       C  0.68844590  0.47943277  0.10674955     0.38800
C1082       C  0.78944035  0.51826357  0.19182679     0.38800
C1083       C  0.80167107  0.51338648  0.12465060     0.37200
C1084       C  0.67667846  0.48381025  0.17348427     0.37200
N1085       N  0.82667404  0.52031252  0.11437264    -0.37600
N1086       N  0.65033896  0.48130786  0.18209715    -0.37600
N1087       N  0.80963379  0.52845856  0.20816790    -0.37100
N1088       N  0.66748112  0.47310533  0.08947940    -0.37100
C1089       C  0.74937242  0.25944570  0.11904311    -0.03700
C1090       C  0.72614206  0.24356440  0.09933935    -0.00800
C1091       C  0.72873412  0.24482475  0.06563422     0.04100
C1092       C  0.75438646  0.26185345  0.05064990    -0.03700
C1093       C  0.77635228  0.27925002  0.06981856    -0.00800
C1094       C  0.77336523  0.27893635  0.10359281     0.04100
C1095       C  0.69969028  0.22493163  0.11310789     0.38800
C1096       C  0.80393724  0.29525897  0.05529377     0.38800
C1097       C  0.79551331  0.29886129  0.12198512     0.37200
C1098       C  0.70539976  0.22722154  0.04623214     0.37200
N1099       N  0.81324660  0.31491063  0.13638649    -0.37600
N1100       N  0.68681390  0.21315123  0.03087660    -0.37600
N1101       N  0.82649904  0.30792472  0.04464867    -0.37100
N1102       N  0.67851035  0.21001829  0.12379918    -0.37100
C1103       C  0.76767794  0.26798835  0.93007773    -0.03700
C1104       C  0.79440340  0.25977892  0.91098705    -0.00800
C1105       C  0.79216324  0.26037475  0.87724435     0.04100
C1106       C  0.76304189  0.26883069  0.86196675    -0.03700
C1107       C  0.73675158  0.27820968  0.88088257    -0.00800
C1108       C  0.73889989  0.27737995  0.91469734     0.04100
C1109       C  0.82367600  0.24823782  0.92598452     0.38800
C1110       C  0.70704165  0.28810972  0.86559597     0.38800
C1111       C  0.71014106  0.28266675  0.93320945     0.37200
C1112       C  0.81918230  0.24974169  0.85837495     0.37200
N1113       N  0.68642835  0.28644605  0.94694184    -0.37600
N1114       N  0.84064643  0.24113039  0.84333498    -0.37600
N1115       N  0.68325308  0.29593436  0.85355333    -0.37100
N1116       N  0.84701103  0.23878595  0.93772084    -0.37100
C1117       C  0.75615800  0.37984304  0.99489204    -0.03700
C1118       C  0.78435510  0.36520823  0.98387548    -0.00800
C1119       C  0.78614400  0.33137608  0.98217763     0.04100
C1120       C  0.75989270  0.31153785  0.99197409    -0.03700
C1121       C  0.73179178  0.32634711  0.00335965    -0.00800
C1122       C  0.72973173  0.36022344  0.00417419     0.04100
C1123       C  0.81180931  0.38513959  0.97465121     0.38800
C1124       C  0.70445637  0.30701528  0.01363670     0.38800
C1125       C  0.70007371  0.37504655  0.01394861     0.37200
C1126       C  0.81601448  0.31724065  0.97227590     0.37200
N1127       N  0.67638136  0.38692506  0.02159647    -0.37600
N1128       N  0.84059378  0.30708377  0.96488445    -0.37600
N1129       N  0.68199271  0.29241887  0.02182492    -0.37100
N1130       N  0.83364895  0.40110769  0.96729598    -0.37100
C1131       C  0.75094953  0.38361378  0.75375987    -0.03700
C1132       C  0.72459828  0.39385823  0.77205478    -0.00800
C1133       C  0.71824340  0.42688275  0.77498928     0.04100
C1134       C  0.73860381  0.44996635  0.76013537    -0.03700
C1135       C  0.76561069  0.43958702  0.74263948    -0.00800
C1136       C  0.77207045  0.40658366  0.73998439     0.04100
C1137       C  0.70347939  0.37022282  0.78726067     0.38800
C1138       C  0.78534798  0.46277335  0.72509022     0.38800
C1139       C  0.79921914  0.39623263  0.72121848     0.37200
C1140       C  0.68901675  0.43655293  0.79068563     0.37200
N1141       N  0.82088005  0.38803231  0.70622931    -0.37600
N1142       N  0.66516362  0.44312066  0.80298160    -0.37600
N1143       N  0.80085476  0.48122069  0.71082243    -0.37100
N1144       N  0.68667149  0.35133290  0.79933838    -0.37100
C1145       C  0.73826122  0.50589108  0.81131573    -0.03700
C1146       C  0.71170032  0.51056796  0.83169975    -0.00800
C1147       C  0.71537816  0.50910812  0.86532545     0.04100
C1148       C  0.74564050  0.50263935  0.87912640    -0.03700
C1149       C  0.77180024  0.49603395  0.85890519    -0.00800
C1150       C  0.76804992  0.49728214  0.82516828     0.04100
C1151       C  0.67986227  0.51414146  0.81815107     0.38800
C1152       C  0.80249884  0.48748558  0.87295913     0.38800
C1153       C  0.79465429  0.48852349  0.80508815     0.37200
C1154       C  0.68773869  0.51320019  0.88587917     0.37200
N1155       N  0.81650049  0.48082974  0.79009449    -0.37600
N1156       N  0.66571651  0.51626002  0.90235208    -0.37600
N1157       N  0.82691852  0.48050367  0.88425062    -0.37100
N1158       N  0.65394653  0.51579287  0.80810960    -0.37100
C1159       C  0.75586836  0.61878449  0.00004562    -0.03700
C1160       C  0.72805208  0.63637056  0.00704859    -0.00800
C1161       C  0.72992447  0.67009429  0.01059997     0.04100
C1162       C  0.75896486  0.68712412  0.00421855    -0.03700
C1163       C  0.78648997  0.66955878  0.99587268    -0.00800
C1164       C  0.78519041  0.63560115  0.99478179     0.04100
C1165       C  0.69728810  0.61967377  0.01005971     0.38800
C1166       C  0.81655252  0.68624709  0.98919680     0.38800
C1167       C  0.81410214  0.61782563  0.98825798     0.37200
C1168       C  0.70137307  0.68710225  0.01964389     0.37200
N1169       N  0.83711512  0.60354677  0.98306725    -0.37600
N1170       N  0.67776336  0.69962120  0.02642580    -0.37600
N1171       N  0.84100043  0.69890528  0.98406029    -0.37100
N1172       N  0.67273205  0.60634274  0.01221435    -0.37100
C1173       C  0.74803794  0.73693880  0.13234683    -0.03700
C1174       C  0.72207070  0.74735715  0.11327719    -0.00800
C1175       C  0.72384746  0.74580305  0.07966658     0.04100
C1176       C  0.75137987  0.73317547  0.06464500    -0.03700
C1177       C  0.77665530  0.72126469  0.08393208    -0.00800
C1178       C  0.77491042  0.72306492  0.11766118     0.04100
C1179       C  0.69454638  0.76216355  0.12809781     0.38800
C1180       C  0.80594443  0.71007160  0.06947201     0.38800
C1181       C  0.80117150  0.71129182  0.13733461     0.37200
C1182       C  0.69838810  0.75996344  0.06050896     0.37200
N1183       N  0.82207820  0.70200898  0.15312200    -0.37600
N1184       N  0.67821541  0.77154984  0.04533115    -0.37600
N1185       N  0.82994004  0.70126222  0.05906281    -0.37100
N1186       N  0.67269287  0.77409768  0.13990057    -0.37100
C1187       C  0.62444939  0.76033088  0.26767750    -0.03700
C1188       C  0.61280548  0.78588471  0.28654609    -0.00800
C1189       C  0.57986973  0.78724247  0.29465553     0.04100
C1190       C  0.55796993  0.76400203  0.28292357    -0.03700
C1191       C  0.56876679  0.74106293  0.26087510    -0.00800
C1192       C  0.60169123  0.73914735  0.25325131     0.04100
C1193       C  0.63443302  0.81126071  0.29751724     0.38800
C1194       C  0.54594233  0.71844489  0.24675105     0.38800
C1195       C  0.61172486  0.71451461  0.23126977     0.37200
C1196       C  0.56920214  0.81176764  0.31633514     0.37200
N1197       N  0.61950323  0.69494987  0.21356016    -0.37600
N1198       N  0.56180557  0.83176801  0.33370491    -0.37600
N1199       N  0.52785086  0.70033554  0.23553955    -0.37100
N1200       N  0.65154108  0.83159580  0.30623713    -0.37100
C1201       C  0.74160294  0.62383979  0.23933397    -0.03700
C1202       C  0.75818458  0.60203941  0.25953552    -0.00800
C1203       C  0.75443548  0.56864006  0.25523146     0.04100
C1204       C  0.73268405  0.55632367  0.23204861    -0.03700
C1205       C  0.71770833  0.57778928  0.21061831    -0.00800
C1206       C  0.72304338  0.61127172  0.21349085     0.04100
C1207       C  0.77765828  0.61347493  0.28616259     0.38800
C1208       C  0.69518503  0.56596630  0.18676426     0.38800
C1209       C  0.70936483  0.63260524  0.18951863     0.37200
C1210       C  0.77196994  0.54668871  0.27590375     0.37200
N1211       N  0.69855642  0.64951922  0.17027400    -0.37600
N1212       N  0.78589237  0.52918918  0.29237219    -0.37600
N1213       N  0.67688877  0.55762691  0.16748463    -0.37100
N1214       N  0.79310492  0.62246768  0.30749626    -0.37100
C1215       C  0.73545704  0.86918213  0.23950906    -0.03700
C1216       C  0.73295406  0.87982742  0.20723530    -0.00800
C1217       C  0.73117994  0.91286107  0.19981559     0.04100
C1218       C  0.73022742  0.93584529  0.22446906    -0.03700
C1219       C  0.73104335  0.92518160  0.25669487    -0.00800
C1220       C  0.73303915  0.89207780  0.26421040     0.04100
C1221       C  0.73231127  0.85689289  0.18124788     0.38800
C1222       C  0.73441436  0.94823317  0.28227859     0.38800
C1223       C  0.73465019  0.88210573  0.29756661     0.37200
C1224       C  0.73300181  0.92308718  0.16653804     0.37200
N1225       N  0.73578942  0.87436065  0.32423164    -0.37600
N1226       N  0.73510437  0.93061642  0.13987114    -0.37600
N1227       N  0.73812060  0.96586247  0.30322643    -0.37100
N1228       N  0.73187022  0.83868933  0.16049829    -0.37100
C1229       C  0.23911764  0.72533885  0.06511901    -0.03700
C1230       C  0.22184471  0.70404923  0.08536476    -0.00800
C1231       C  0.22722755  0.70442907  0.11886339     0.04100
C1232       C  0.24860828  0.72745454  0.13272781    -0.03700
C1233       C  0.26853032  0.74611111  0.11196532    -0.00800
C1234       C  0.26388799  0.74482954  0.07847976     0.04100
C1235       C  0.19707639  0.68303161  0.07234153     0.38800
C1236       C  0.29310437  0.76774068  0.12459740     0.38800
C1237       C  0.28377852  0.76495975  0.05765251     0.37200
C1238       C  0.21088819  0.68066894  0.13890188     0.37200
N1239       N  0.29955549  0.78106369  0.04108437    -0.37600
N1240       N  0.19805009  0.66158038  0.15485484    -0.37600
N1241       N  0.31287558  0.78491316  0.13445778    -0.37100
N1242       N  0.17706286  0.66594937  0.06284768    -0.37100
C1243       C  0.37202265  0.75421214  0.27550010    -0.03700
C1244       C  0.38199998  0.75911471  0.30758188    -0.00800
C1245       C  0.41501267  0.76289163  0.31519712     0.04100
C1246       C  0.43856479  0.76193426  0.29090042    -0.03700
C1247       C  0.42851041  0.75750632  0.25883538    -0.00800
C1248       C  0.39547028  0.75467200  0.25106583     0.04100
C1249       C  0.35834503  0.76029532  0.33300963     0.38800
C1250       C  0.45188521  0.75132400  0.23415228     0.38800
C1251       C  0.38594591  0.75003028  0.21791802     0.37200
C1252       C  0.42466352  0.76585292  0.34847169     0.37200
N1253       N  0.37843342  0.74648010  0.19145808    -0.37600
N1254       N  0.43173818  0.76777036  0.37522149    -0.37600
N1255       N  0.46947099  0.74513436  0.21384890    -0.37100
N1256       N  0.33955673  0.76114066  0.35333842    -0.37100
C1257       C  0.25625194  0.61998422  0.24275393    -0.03700
C1258       C  0.28701117  0.60604228  0.24587652    -0.00800
C1259       C  0.29034104  0.57254314  0.24404877     0.04100
C1260       C  0.26361995  0.55253883  0.23630299    -0.03700
C1261       C  0.23354428  0.56667311  0.23016243    -0.00800
C1262       C  0.22963791  0.60004308  0.23410321     0.04100
C1263       C  0.31555307  0.62586440  0.25144905     0.38800
C1264       C  0.20553863  0.54680427  0.22304052     0.38800
C1265       C  0.19750425  0.61309050  0.23168453     0.37200
C1266       C  0.32097988  0.55855976  0.25284437     0.37200
N1267       N  0.17182579  0.62333977  0.22996368    -0.37600
N1268       N  0.34533279  0.54764390  0.26039981    -0.37600
N1269       N  0.18237068  0.53210222  0.21748632    -0.37100
N1270       N  0.33836369  0.64153372  0.25591472    -0.37100
C1271       C  0.26197922  0.86371579  0.24253740    -0.03700
C1272       C  0.27122241  0.88273603  0.26890076    -0.00800
C1273       C  0.27068526  0.91649227  0.26653425     0.04100
C1274       C  0.26237246  0.93159885  0.23726846    -0.03700
C1275       C  0.25459914  0.91238589  0.21040626    -0.00800
C1276       C  0.25470312  0.87863269  0.21295321     0.04100
C1277       C  0.28093458  0.86750596  0.29877874     0.38800
C1278       C  0.24387277  0.92718358  0.18068190     0.38800
C1279       C  0.24518267  0.85936847  0.18560437     0.37200
C1280       C  0.27467182  0.93498089  0.29547540     0.37200
N1281       N  0.23759593  0.84404132  0.16379627    -0.37600
N1282       N  0.27719587  0.94836664  0.31949192    -0.37600
N1283       N  0.23492999  0.93873491  0.15701295    -0.37100
N1284       N  0.28874433  0.85529445  0.32251684    -0.37100
C1285       C  0.23496740  0.73220766  0.37863581    -0.03700
C1286       C  0.22957072  0.70069869  0.39071797    -0.00800
C1287       C  0.22873182  0.69481876  0.42398535     0.04100
C1288       C  0.23069665  0.72056773  0.44571943    -0.03700
C1289       C  0.23437614  0.75223417  0.43364173    -0.00800
C1290       C  0.23628505  0.75808048  0.40030959     0.04100
C1291       C  0.22497336  0.67398705  0.36897656     0.38800
C1292       C  0.24075120  0.77852959  0.45532383     0.38800
C1293       C  0.24193530  0.79064147  0.38871442     0.37200
C1294       C  0.22879357  0.66186759  0.43553709     0.37200
N1295       N  0.24642599  0.81665622  0.37962980    -0.37600
N1296       N  0.22966292  0.63534778  0.44395851    -0.37600
N1297       N  0.24684925  0.79994006  0.47179807    -0.37100
N1298       N  0.22126904  0.65271380  0.35166948    -0.37100
C1299       C  0.11736437  0.74344524  0.50296879    -0.03700
C1300       C  0.13938351  0.76796693  0.51190605    -0.00800
C1301       C  0.17282224  0.76205204  0.51277522     0.04100
C1302       C  0.18451447  0.73166209  0.50426575    -0.03700
C1303       C  0.16223814  0.70701639  0.49610879    -0.00800
C1304       C  0.12898422  0.71300801  0.49486666     0.04100
C1305       C  0.12740070  0.79911970  0.52074246     0.38800
C1306       C  0.17305897  0.67437666  0.49292533     0.38800
C1307       C  0.10652458  0.68747139  0.48614381     0.37200
C1308       C  0.19479511  0.78695014  0.52361325     0.37200
N1309       N  0.08861741  0.66718526  0.47901164    -0.37600
N1310       N  0.21161886  0.80730876  0.53276134    -0.37600
N1311       N  0.18077766  0.64788424  0.49165066    -0.37100
N1312       N  0.11761656  0.82385281  0.52792596    -0.37100
C1313       C  0.12504600  0.75033616  0.26880072    -0.03700
C1314       C  0.10248679  0.73444779  0.24857317    -0.00800
C1315       C  0.06931001  0.74084224  0.25094447     0.04100
C1316       C  0.05811073  0.76423242  0.27234747    -0.03700
C1317       C  0.07993613  0.77813757  0.29427334    -0.00800
C1318       C  0.11290307  0.77014620  0.29348908     0.04100
C1319       C  0.11297750  0.71240947  0.22422039     0.38800
C1320       C  0.06928861  0.80223426  0.31644460     0.38800
C1321       C  0.13397384  0.78225145  0.31861580     0.37200
C1322       C  0.04654571  0.72406114  0.23027669     0.37200
N1323       N  0.15053522  0.79179708  0.33887398    -0.37600
N1324       N  0.02835112  0.71072580  0.21386910    -0.37600
N1325       N  0.06193914  0.82175974  0.33436693    -0.37100
N1326       N  0.12112322  0.69481778  0.20470584    -0.37100
C1327       C  0.93828931  0.77331115  0.27144982    -0.03700
C1328       C  0.91603982  0.79865468  0.27114134    -0.00800
C1329       C  0.88263426  0.79213349  0.26955325     0.04100
C1330       C  0.87094646  0.76026923  0.26610309    -0.03700
C1331       C  0.89305194  0.73481684  0.26712619    -0.00800
C1332       C  0.92649983  0.74133013  0.26944613     0.04100
C1333       C  0.92732319  0.83174961  0.26964438     0.38800
C1334       C  0.88169818  0.70189342  0.26355634     0.38800
C1335       C  0.94860331  0.71518403  0.26537483     0.37200
C1336       C  0.86028082  0.81845937  0.27162873     0.37200
N1337       N  0.96531092  0.69373588  0.26112920    -0.37600
N1338       N  0.84245793  0.83941131  0.27342872    -0.37600
N1339       N  0.87265919  0.67564740  0.26073487    -0.37100
N1340       N  0.93562808  0.85833310  0.26761723    -0.37100
C1341       C  0.99750690  0.76647907  0.31925593    -0.03700
C1342       C  0.99109367  0.79260490  0.33950451    -0.00800
C1343       C  0.99117433  0.78858650  0.37311986     0.04100
C1344       C  0.99633690  0.75807929  0.38697486    -0.03700
C1345       C  0.00319635  0.73201818  0.36684528    -0.00800
C1346       C  0.00483561  0.73647450  0.33323807     0.04100
C1347       C  0.98780844  0.82449444  0.32594010     0.38800
C1348       C  0.00950395  0.70077978  0.38090219     0.38800
C1349       C  0.01585535  0.71064581  0.31344979     0.37200
C1350       C  0.98750793  0.81617550  0.39362048     0.37200
N1351       N  0.02544238  0.68975655  0.29836153    -0.37600
N1352       N  0.98489291  0.83816409  0.41004539    -0.37600
N1353       N  0.01461087  0.67588710  0.39217823    -0.37100
N1354       N  0.98619834  0.85037565  0.31585130    -0.37100
C1355       C  0.00684265  0.76324706  0.69261928    -0.03700
C1356       C  0.01343994  0.73338335  0.67836152    -0.00800
C1357       C  0.01004423  0.72937179  0.64487762     0.04100
C1358       C  0.00218266  0.75565220  0.62488623    -0.03700
C1359       C  0.99662552  0.78571314  0.63889844    -0.00800
C1360       C  0.99861769  0.78940198  0.67247688     0.04100
C1361       C  0.02354250  0.70636460  0.69766096     0.38800
C1362       C  0.98916953  0.81305285  0.61855327     0.38800
C1363       C  0.99380252  0.82076594  0.68599921     0.37200
C1364       C  0.01484048  0.69812058  0.63082675     0.37200
N1365       N  0.99039325  0.84629873  0.69590481    -0.37600
N1366       N  0.01877757  0.67323254  0.61959048    -0.37600
N1367       N  0.98321619  0.83479042  0.60223718    -0.37100
N1368       N  0.03148019  0.68371678  0.71165268    -0.37100
C1369       C  0.76679307  0.73809597  0.44524332    -0.03700
C1370       C  0.75356063  0.71131895  0.42872460    -0.00800
C1371       C  0.75193641  0.71131953  0.39496502     0.04100
C1372       C  0.76338354  0.73813785  0.37729104    -0.03700
C1373       C  0.77942343  0.76337120  0.39343665    -0.00800
C1374       C  0.78100154  0.76349390  0.42724758     0.04100
C1375       C  0.73944642  0.68452919  0.44652958     0.38800
C1376       C  0.79408594  0.78952107  0.37511226     0.38800
C1377       C  0.79513616  0.79119173  0.44283402     0.37200
C1378       C  0.73643045  0.68462391  0.37860218     0.37200
N1379       N  0.80680886  0.81412753  0.45346313    -0.37600
N1380       N  0.72404586  0.66333616  0.36558470    -0.37600
N1381       N  0.80581619  0.81026605  0.36042032    -0.37100
N1382       N  0.72801840  0.66319658  0.46061201    -0.37100
C1383       C  0.87960628  0.74649467  0.50837997    -0.03700
C1384       C  0.86268417  0.77433716  0.51633518    -0.00800
C1385       C  0.82866193  0.77409739  0.51625069     0.04100
C1386       C  0.81101029  0.74612391  0.50759356    -0.03700
C1387       C  0.82809560  0.71815065  0.49998862    -0.00800
C1388       C  0.86215541  0.71839164  0.50021001     0.04100
C1389       C  0.88046140  0.80360686  0.52380951     0.38800
C1390       C  0.81081525  0.68862611  0.49299092     0.38800
C1391       C  0.87940036  0.68972200  0.49180866     0.37200
C1392       C  0.81231143  0.80354663  0.52319706     0.37200
N1393       N  0.89324050  0.66694377  0.48494968    -0.37600
N1394       N  0.80088371  0.82813769  0.52801836    -0.37600
N1395       N  0.79786457  0.66443954  0.48778470    -0.37100
N1396       N  0.89467920  0.82692141  0.52975007    -0.37100
C1397       C  0.06723840  0.75886677  0.73992491    -0.03700
C1398       C  0.08825337  0.78187702  0.72588924    -0.00800
C1399       C  0.12186640  0.77812813  0.72834128     0.04100
C1400       C  0.13461382  0.75123674  0.74458049    -0.03700
C1401       C  0.11368226  0.72740692  0.75712747    -0.00800
C1402       C  0.08017532  0.73151957  0.75542006     0.04100
C1403       C  0.07566510  0.81102344  0.71176541     0.38800
C1404       C  0.12656480  0.70003355  0.77436772     0.38800
C1405       C  0.05909896  0.70896978  0.77226664     0.37200
C1406       C  0.14341793  0.80258011  0.71514256     0.37200
N1407       N  0.04230698  0.69110079  0.78581203    -0.37600
N1408       N  0.16067456  0.82213108  0.70485956    -0.37600
N1409       N  0.13668716  0.67826877  0.78832109    -0.37100
N1410       N  0.06642285  0.83470392  0.70064210    -0.37100
C1411       C  0.27563195  0.62929696  0.77113183    -0.03700
C1412       C  0.24951265  0.60755195  0.77540329    -0.00800
C1413       C  0.25472054  0.57418476  0.77687867     0.04100
C1414       C  0.28634343  0.56216148  0.77729192    -0.03700
C1415       C  0.31263672  0.58421867  0.77617042    -0.00800
C1416       C  0.30737014  0.61742666  0.77231564     0.04100
C1417       C  0.21699899  0.61935306  0.77828345     0.38800
C1418       C  0.34542475  0.57273091  0.77688098     0.38800
C1419       C  0.33482617  0.63895211  0.76752889     0.37200
C1420       C  0.22715455  0.55279904  0.77361632     0.37200
N1421       N  0.35672509  0.65604238  0.76358757    -0.37600
N1422       N  0.20414916  0.53728741  0.76987018    -0.37600
N1423       N  0.37175662  0.56410650  0.77717455    -0.37100
N1424       N  0.19105018  0.62860263  0.78083107    -0.37100
C1425       C  0.37770339  0.77167082  0.74692709    -0.03700
C1426       C  0.39400862  0.76369159  0.71861102    -0.00800
C1427       C  0.42782703  0.76464300  0.71788713     0.04100
C1428       C  0.44568234  0.77542226  0.74477670    -0.03700
C1429       C  0.42926589  0.78524536  0.77241755    -0.00800
C1430       C  0.39538110  0.78315168  0.77357758     0.04100
C1431       C  0.37628009  0.75158529  0.69108260     0.38800
C1432       C  0.44703277  0.79385639  0.80109892     0.38800
C1433       C  0.37881660  0.79153839  0.80278596     0.37200
C1434       C  0.44419596  0.75112480  0.69062032     0.37200
N1435       N  0.36563380  0.79783801  0.82618251    -0.37600
N1436       N  0.45710312  0.73988695  0.66906336    -0.37600
N1437       N  0.46036971  0.80037437  0.82457872    -0.37100
N1438       N  0.36227783  0.74186982  0.66911205    -0.37100
C1439       C  0.23971897  0.74218149  0.63145940    -0.03700
C1440       C  0.21239126  0.72516793  0.61939677    -0.00800
C1441       C  0.20940874  0.71885853  0.58628726     0.04100
C1442       C  0.23226821  0.73165872  0.56465104    -0.03700
C1443       C  0.25646692  0.75289565  0.57612446    -0.00800
C1444       C  0.26114225  0.75703252  0.60927619     0.04100
C1445       C  0.18699790  0.71429205  0.64085364     0.38800
C1446       C  0.27747937  0.76969181  0.55358169     0.38800
C1447       C  0.28938641  0.77486677  0.62009599     0.37200
C1448       C  0.18364213  0.69793612  0.57511314     0.37200
N1449       N  0.31209445  0.78894482  0.62847071    -0.37600
N1450       N  0.16272138  0.68109809  0.56721573    -0.37600
N1451       N  0.29401828  0.78322478  0.53557747    -0.37100
N1452       N  0.16657366  0.70582511  0.65785108    -0.37100
C1453       C  0.24417959  0.73847149  0.87832579    -0.03700
C1454       C  0.21210544  0.73558653  0.88945122    -0.00800
C1455       C  0.20557885  0.73418584  0.92256085     0.04100
C1456       C  0.23085087  0.73109499  0.94517005    -0.03700
C1457       C  0.26295933  0.73207764  0.93404025    -0.00800
C1458       C  0.26963013  0.73555582  0.90090825     0.04100
C1459       C  0.18546163  0.73335192  0.86690317     0.38800
C1460       C  0.28930208  0.73445183  0.95682069     0.38800
C1461       C  0.30289371  0.73775895  0.89056293     0.37200
C1462       C  0.17300832  0.73995454  0.93311883     0.37200
N1463       N  0.32947490  0.73935717  0.88246228    -0.37600
N1464       N  0.14708162  0.74576054  0.94093161    -0.37600
N1465       N  0.31066849  0.73745406  0.97444546    -0.37100
N1466       N  0.16423978  0.73113852  0.84896800    -0.37100
C1467       C  0.26218156  0.87482121  0.75625028    -0.03700
C1468       C  0.24898824  0.89473265  0.73221713    -0.00800
C1469       C  0.25126810  0.92838380  0.73495675     0.04100
C1470       C  0.26778523  0.94249188  0.76117020    -0.03700
C1471       C  0.28250025  0.92245212  0.78422463    -0.00800
C1472       C  0.27990771  0.88873123  0.78161379     0.04100
C1473       C  0.23156297  0.88068088  0.70547070     0.38800
C1474       C  0.29802758  0.93620397  0.81211397     0.38800
C1475       C  0.29548895  0.86822437  0.80508273     0.37200
C1476       C  0.23448317  0.94850985  0.71193964     0.37200
N1477       N  0.30797889  0.85175718  0.82365699    -0.37600
N1478       N  0.22109976  0.96455109  0.69361229    -0.37600
N1479       N  0.31030691  0.94634122  0.83485867    -0.37100
N1480       N  0.21773126  0.86965200  0.68401925    -0.37100
C1481       C  0.63420692  0.76946918  0.75724159    -0.03700
C1482       C  0.61874393  0.78296284  0.73016771    -0.00800
C1483       C  0.58492959  0.78616445  0.72965993     0.04100
C1484       C  0.56639581  0.77572128  0.75613640    -0.03700
C1485       C  0.58215451  0.76351060  0.78371388    -0.00800
C1486       C  0.61582471  0.76070756  0.78437194     0.04100
C1487       C  0.63754690  0.79302718  0.70254072     0.38800
C1488       C  0.56347723  0.75110883  0.81059129     0.38800
C1489       C  0.63117539  0.74638616  0.81222976     0.37200
C1490       C  0.56924418  0.79760772  0.70077617     0.37200
N1491       N  0.64319667  0.73488871  0.83449777    -0.37600
N1492       N  0.55743897  0.80665858  0.67730112    -0.37600
N1493       N  0.54865284  0.74104574  0.83194033    -0.37100
N1494       N  0.65251605  0.80092792  0.68044753    -0.37100
C1495       C  0.74664238  0.63723074  0.76423200    -0.03700
C1496       C  0.77224068  0.61524074  0.76316793    -0.00800
C1497       C  0.76597962  0.58175959  0.76534622     0.04100
C1498       C  0.73408212  0.56971914  0.76840298    -0.03700
C1499       C  0.70870625  0.59179086  0.77050643    -0.00800
C1500       C  0.71505161  0.62518469  0.76969656     0.04100
C1501       C  0.80490801  0.62671122  0.75747576     0.38800
C1502       C  0.67551675  0.58052819  0.77042887     0.38800
C1503       C  0.68870572  0.64710852  0.77441063     0.37200
C1504       C  0.79220819  0.55987468  0.76051049     0.37200
N1505       N  0.66769928  0.66453041  0.77826788    -0.37600
N1506       N  0.81370159  0.54327185  0.75595846    -0.37600
N1507       N  0.64870933  0.57262067  0.76956274    -0.37100
N1508       N  0.83098892  0.63572214  0.75287786    -0.37100
C1509       C  0.76160723  0.75962626  0.63290579    -0.03700
C1510       C  0.75530965  0.78658378  0.61321897    -0.00800
C1511       C  0.75393642  0.78334447  0.57969799     0.04100
C1512       C  0.76240849  0.75414743  0.56515472    -0.03700
C1513       C  0.77047646  0.72764666  0.58478650    -0.00800
C1514       C  0.76987539  0.73030275  0.61850370     0.04100
C1515       C  0.74867693  0.81745827  0.62731308     0.38800
C1516       C  0.77603419  0.69663607  0.57062613     0.38800
C1517       C  0.77766663  0.70269858  0.63839728     0.37200
C1518       C  0.74074360  0.80925143  0.56047046     0.37200
N1519       N  0.78378817  0.68072110  0.65433115    -0.37600
N1520       N  0.72980617  0.82976321  0.54525867    -0.37600
N1521       N  0.78000879  0.67146940  0.56004856    -0.37100
N1522       N  0.74382901  0.84224585  0.63838671    -0.37100
C1523       C  0.77111098  0.73904568  0.87721925    -0.03700
C1524       C  0.74560848  0.72245746  0.89261101    -0.00800
C1525       C  0.74415809  0.72110209  0.92631949     0.04100
C1526       C  0.76950829  0.73439389  0.94487799    -0.03700
C1527       C  0.79682340  0.74784852  0.92905448    -0.00800
C1528       C  0.79744051  0.75045112  0.89537755     0.04100
C1529       C  0.72047903  0.70717543  0.87356993     0.38800
C1530       C  0.82323511  0.76164453  0.94750685     0.38800
C1531       C  0.82403865  0.76706622  0.87962198     0.37200
C1532       C  0.71464629  0.70964000  0.94104812     0.37200
N1533       N  0.84518512  0.78044497  0.86708569    -0.37600
N1534       N  0.69013077  0.70076009  0.95104144    -0.37600
N1535       N  0.84415020  0.77290967  0.96219692    -0.37100
N1536       N  0.70072840  0.69465117  0.85832940    -0.37100
C1537       C  0.74124387  0.88294976  0.77051892    -0.03700
C1538       C  0.75037737  0.89909915  0.79870845    -0.00800
C1539       C  0.74638200  0.93255901  0.80098380     0.04100
C1540       C  0.73567974  0.95079158  0.77410967    -0.03700
C1541       C  0.72553832  0.93423606  0.74631607    -0.00800
C1542       C  0.72669302  0.90038539  0.74533956     0.04100
C1543       C  0.76603814  0.88173724  0.82459735     0.38800
C1544       C  0.71735358  0.95136563  0.71720157     0.38800
C1545       C  0.71258045  0.88338281  0.71841250     0.37200
C1546       C  0.75499525  0.94836337  0.83072685     0.37200
N1547       N  0.70083066  0.86977774  0.69723920    -0.37600
N1548       N  0.76196937  0.96083537  0.85445864    -0.37600
N1549       N  0.71124524  0.96342675  0.69291697    -0.37100
N1550       N  0.77883831  0.86795767  0.84507396    -0.37100
C1551       C  0.87937271  0.77355997  0.73807032    -0.03700
C1552       C  0.89604879  0.80262645  0.74456429    -0.00800
C1553       C  0.92998878  0.80365880  0.74442046     0.04100
C1554       C  0.94759659  0.77571252  0.73763413    -0.03700
C1555       C  0.93077467  0.74718008  0.72959330    -0.00800
C1556       C  0.89688595  0.74656741  0.72846834     0.04100
C1557       C  0.87856986  0.83107266  0.75336899     0.38800
C1558       C  0.94749211  0.71711833  0.72703883     0.38800
C1559       C  0.87999507  0.71787552  0.71758660     0.37200
C1560       C  0.94671659  0.83291106  0.75404621     0.37200
N1561       N  0.86654460  0.69512038  0.70863191    -0.37600
N1562       N  0.95991247  0.85615516  0.76211494    -0.37600
N1563       N  0.95941358  0.69228166  0.72585673    -0.37100
N1564       N  0.86477943  0.85386201  0.76031355    -0.37100
loop_ 
_geom_bond_atom_site_label_1 
_geom_bond_atom_site_label_2 
_geom_bond_distance 
_geom_bond_site_symmetry_2 
_ccdc_geom_bond_type 
Zn1           O5   1.933       .  S
Zn1           O6   1.994       .  S
Zn1          O10   2.012       .  S
Zn1          O17   2.012       .  S
Zn2           O5   1.935       .  S
Zn2           O7   2.024       .  S
Zn2           O9   2.031       .  S
Zn2          O13   2.026       .  S
Zn3           O5   1.941       .  S
Zn3           O8   2.033       .  S
Zn3          O11   2.014       .  S
Zn3          O14   2.011       .  S
Zn4           O5   1.945       .  S
Zn4          O12   2.020       .  S
Zn4          O15   2.030       .  S
Zn4          O16   2.016       .  S
O6           C18   1.271       .  A
O7           C19   1.276       .  A
O8           C20   1.277       .  A
O9           C18   1.276       .  A
O10          C20   1.273       .  A
O11          C19   1.273       .  A
O12          C21   1.278       .  A
O13          C22   1.276       .  A
O14          C21   1.274       .  A
O15          C22   1.275       .  A
O16          C23   1.273       .  A
O17          C23   1.275       .  A
C18        C1481   1.484       .  S
C19        C1509   1.490       .  S
C20        C1537   1.488       .  S
C21        C1551   1.487       .  S
C22        C1495   1.501       .  S
C23        C1523   1.480       .  S
Zn24         O28   1.945       .  S
Zn24         O29   2.013       .  S
Zn24         O33   2.040       .  S
Zn24         O40   2.029       .  S
Zn25         O28   1.925       .  S
Zn25         O30   2.035       .  S
Zn25         O32   2.009       .  S
Zn25         O36   2.039       .  S
Zn26         O28   1.938       .  S
Zn26         O31   1.992       .  S
Zn26         O34   2.022       .  S
Zn26         O37   2.009       .  S
Zn27         O28   1.940       .  S
Zn27         O35   2.001       .  S
Zn27         O38   1.997       .  S
Zn27         O39   2.017       .  S
O29          C41   1.275       .  A
O30          C42   1.277       .  A
O31          C43   1.271       .  A
O32          C41   1.275       .  A
O33          C43   1.278       .  A
O34          C42   1.273       .  A
O35          C44   1.274       .  A
O36          C45   1.277       .  A
O37          C44   1.276       .  A
O38          C45   1.269       .  A
O39          C46   1.273       .  A
O40          C46   1.275       .  A
C41        C1400   1.479       .  S
C42        C1453   1.505       .  S
C43        C1411   1.495       .  S
C44        C1425   1.481       .  S
C45        C1467   1.483       .  S
C46        C1439   1.502       .  S
N47          C51   1.367       .  A
N47          C48   1.366       .  A
N47        C1386   1.454       .  S
C48        C1512   1.489       .  S
C48          C49   1.379       .  A
C49          C50   1.365       .  A
C49          H52   1.082       .  S
C50          C51   1.383       .  A
C50          H53   1.082       .  S
C51        C1369   1.495       .  S
N54          C58   1.364       .  A
N54          C55   1.365   1_455  A
N54        C1355   1.457       .  S
C55        C1554   1.487       .  S
C55          C56   1.381       .  A
C56          C57   1.364   1_655  A
C56          H59   1.082       .  S
C57          C58   1.381       .  A
C57          H60   1.082       .  S
C58        C1397   1.482       .  S
N61          C65   1.364   1_655  A
N61          C62   1.365       .  A
N61        C1341   1.451       .  S
C62        C1327   1.494       .  S
C62          C63   1.379       .  A
C63          C64   1.369   1_655  A
C63          H66   1.082       .  S
C64          C65   1.384       .  A
C64          H67   1.082       .  S
C65        C1316   1.495       .  S
N68          C73   1.357       .  A
N68          C72   1.359       .  A
N68         H100   1.035       .  S
N69          C76   1.352       .  A
N69          C77   1.352       .  A
N70          C75   1.357       .  A
N70          C74   1.357       .  A
N70         H101   1.034       .  S
N71          C78   1.354       .  A
N71          C79   1.355       .  A
C72          C80   1.387       .  A
C72          C88   1.426       .  A
C73          C89   1.424       .  A
C73          C81   1.388       .  A
C74          C82   1.387       .  A
C74          C91   1.423       .  A
C75          C90   1.424       .  A
C75          C83   1.388       .  A
C76          C88   1.419   1_455  A
C76          C84   1.388       .  A
C77          C91   1.417       .  A
C77          C85   1.386       .  A
C78          C86   1.388       .  A
C78          C89   1.423       .  A
C79          C87   1.386       .  A
C79          C90   1.422   1_655  A
C80          C81   1.375       .  A
C80          H92   1.082       .  S
C81          H93   1.083       .  S
C82          C83   1.372       .  A
C82          H94   1.082       .  S
C83          H95   1.081       .  S
C84          C85   1.371       .  A
C84          H96   1.082       .  S
C85          H97   1.082       .  S
C86          C87   1.374       .  A
C86          H98   1.082       .  S
C87          H99   1.082       .  S
C88        C1344   1.507       .  S
C89        C1383   1.506       .  S
C90        C1358   1.509       .  S
C91        C1299   1.502       .  S
N102        C106   1.362       .  A
N102        C103   1.364       .  A
N102       C1302   1.450       .  S
C103       C1288   1.489       .  S
C103        C104   1.379       .  A
C104        C105   1.368       .  A
C104        H107   1.082       .  S
C105        C106   1.384       .  A
C105        H108   1.082       .  S
C106       C1442   1.491       .  S
Zn109       O113   1.933       .  S
Zn109       O114   2.016       .  S
Zn109       O118   2.024       .  S
Zn109       O125   2.007       .  S
Zn110       O113   1.935       .  S
Zn110       O115   2.020       .  S
Zn110       O117   2.005       .  S
Zn110       O121   2.036       .  S
Zn111       O113   1.926       .  S
Zn111       O116   1.999       .  S
Zn111       O119   2.021       .  S
Zn111       O122   2.009       .  S
Zn112       O113   1.936       .  S
Zn112       O120   2.010       .  S
Zn112       O123   2.027       .  S
Zn112       O124   2.054       .  S
O114        C126   1.277       .  A
O115        C127   1.273       .  A
O116        C128   1.273       .  A
O117        C126   1.274       .  A
O118        C128   1.274       .  A
O119        C127   1.274       .  A
O120        C129   1.273       .  A
O121        C130   1.277       .  A
O122        C129   1.275       .  A
O123        C130   1.277       .  A
O124        C131   1.279       .  A
O125        C131   1.272       .  A
C126       C1271   1.483       .  S
C127       C1243   1.495       .  S
C128       C1285   1.494       .  S
C129       C1257   1.498       .  S
C130       C1232   1.508       .  S
C131       C1313   1.512       .  S
Zn132       O136   1.935       .  S
Zn132       O137   2.003       .  S
Zn132       O141   2.024       .  S
Zn132       O148   2.021       .  S
Zn133       O136   1.928       .  S
Zn133       O138   2.013       .  S
Zn133       O140   2.027       .  S
Zn133       O144   2.019       .  S
Zn134       O136   1.938       .  S
Zn134       O139   2.011       .  S
Zn134       O142   2.031       .  S
Zn134       O145   2.035       .  S
Zn135       O136   1.937       .  S
Zn135       O143   2.016       .  S
Zn135       O146   2.020       .  S
Zn135       O147   2.031       .  S
O137        C149   1.272       .  A
O138        C150   1.275       .  A
O139        C151   1.274       .  A
O140        C149   1.276       .  A
O141        C151   1.275       .  A
O142        C150   1.275       .  A
O143        C152   1.275       .  A
O144        C153   1.275       .  A
O145        C152   1.279       .  A
O146        C153   1.273       .  A
O147        C154   1.277       .  A
O148        C154   1.276       .  A
C149       C1173   1.483       .  S
C150       C1215   1.501       .  S
C151       C1187   1.504       .  S
C152       C1372   1.487       .  S
C153       C1330   1.495       .  S
C154       C1201   1.504       .  S
N155        C159   1.367       .  A
N155        C156   1.367   1_554  A
N155       C1162   1.456       .  S
C156       C1526   1.490       .  S
C156        C157   1.381       .  A
C157        C158   1.362   1_556  A
C157        H160   1.082       .  S
C158        C159   1.381       .  A
C158        H161   1.083       .  S
C159       C1176   1.489       .  S
N162        C166   1.363       .  A
N162        C163   1.367       .  A
N162       C1145   1.454       .  S
C163       C1498   1.494       .  S
C163        C164   1.380       .  A
C164        C165   1.368       .  A
C164        H167   1.082       .  S
C165        C166   1.381       .  A
C165        H168   1.082       .  S
C166       C1134   1.489       .  S
N169        C173   1.369   1_556  A
N169        C170   1.369       .  A
N169       C1120   1.458       .  S
C170       C1103   1.496       .  S
C170        C171   1.381       .  A
C171        C172   1.365   1_556  A
C171        H174   1.082       .  S
C172        C173   1.382       .  A
C172        H175   1.082       .  S
C173       C1092   1.497       .  S
N176        C181   1.357       .  A
N176        C180   1.357       .  A
N176        H208   1.035       .  S
N177        C184   1.355       .  A
N177        C185   1.355       .  A
N178        C183   1.357       .  A
N178        C182   1.356       .  A
N178        H209   1.031       .  S
N179        C186   1.355       .  A
N179        C187   1.356       .  A
C180        C188   1.387       .  A
C180        C196   1.422       .  A
C181        C197   1.423       .  A
C181        C189   1.388       .  A
C182        C190   1.388       .  A
C182        C199   1.425       .  A
C183        C198   1.426   1_554  A
C183        C191   1.388       .  A
C184        C196   1.423   1_554  A
C184        C192   1.387       .  A
C185        C199   1.423       .  A
C185        C193   1.386       .  A
C186        C194   1.386       .  A
C186        C197   1.422       .  A
C187        C195   1.387       .  A
C187        C198   1.425       .  A
C188        C189   1.376       .  A
C188        H200   1.082       .  S
C189        H201   1.082       .  S
C190        C191   1.374       .  A
C190        H202   1.082       .  S
C191        H203   1.082       .  S
C192        C193   1.375       .  A
C192        H204   1.082       .  S
C193        H205   1.082       .  S
C194        C195   1.374       .  A
C194        H206   1.082       .  S
C195        H207   1.082       .  S
C196       C1117   1.509       .  S
C197       C1148   1.506       .  S
C198       C1159   1.511   1_556  S
C199       C1075   1.507       .  S
N210        C214   1.364       .  A
N210        C211   1.364       .  A
N210       C1078   1.452       .  S
C211       C1061   1.490       .  S
C211        C212   1.379       .  A
C212        C213   1.367       .  A
C212        H215   1.082       .  S
C213        C214   1.384       .  A
C213        H216   1.082       .  S
C214       C1204   1.493       .  S
Zn217       O221   1.943       .  S
Zn217       O222   2.029       .  S
Zn217       O226   2.030       .  S
Zn217       O233   2.052       .  S
Zn218       O221   1.922       .  S
Zn218       O223   2.025       .  S
Zn218       O225   2.005       .  S
Zn218       O229   2.013       .  S
Zn219       O221   1.928       .  S
Zn219       O224   2.031       .  S
Zn219       O227   2.030       .  S
Zn219       O230   2.018       .  S
Zn220       O221   1.926       .  S
Zn220       O228   2.014       .  S
Zn220       O231   2.008       .  S
Zn220       O232   1.993       .  S
O222        C234   1.275       .  A
O223        C235   1.276       .  A
O224        C236   1.277       .  A
O225        C234   1.275       .  A
O226        C236   1.276       .  A
O227        C235   1.275       .  A
O228        C237   1.274       .  A
O229        C238   1.274       .  A
O230        C237   1.275       .  A
O231        C238   1.272       .  A
O232        C239   1.272       .  A
O233        C239   1.279       .  A
C234       C1064   1.493       .  S
C235       C1033   1.498       .  S
C236       C1089   1.518       .  S
C237       C1008   1.499       .  S
C238       C1019   1.492       .  S
C239       C1047   1.506       .  S
Zn240       O244   1.941       .  S
Zn240       O245   2.027       .  S
Zn240       O249   2.036       .  S
Zn240       O256   2.019       .  S
Zn241       O244   1.924       .  S
Zn241       O246   2.009       .  S
Zn241       O248   2.018       .  S
Zn241       O252   2.035       .  S
Zn242       O244   1.939       .  S
Zn242       O247   2.022       .  S
Zn242       O250   2.036       .  S
Zn242       O253   2.039       .  S
Zn243       O244   1.927       .  S
Zn243       O251   1.997       .  S
Zn243       O254   1.979       .  S
Zn243       O255   1.999       .  S
O245        C257   1.276       .  A
O246        C258   1.274       .  A
O247        C259   1.276       .  A
O248        C257   1.276       .  A
O249        C259   1.278       .  A
O250        C258   1.276       .  A
O251        C260   1.272       .  A
O252        C261   1.275       .  A
O253        C260   1.279       .  A
O254        C261   1.268       .  A
O255        C262   1.271       .  A
O256        C262   1.274       .  A
C257        C980   1.496       .  S
C258       C1131   1.483       .  S
C259       C1106   1.493       .  S
C260        C991   1.486       .  S
C261        C966   1.477       .  S
C262        C949   1.498       .  S
N263        C267   1.365       .  A
N263        C264   1.371   1_545  A
N263        C935   1.456       .  S
C264       C1540   1.500       .  S
C264        C265   1.383       .  A
C265        C266   1.362   1_565  A
C265        H268   1.082       .  S
C266        C267   1.380       .  A
C266        H269   1.083       .  S
C267        C952   1.490       .  S
N270        C274   1.366       .  A
N270        C271   1.364       .  A
N270        C921   1.458       .  S
C271       C1428   1.481       .  S
C271        C272   1.379       .  A
C272        C273   1.360       .  A
C272        H275   1.083       .  S
C273        C274   1.381       .  A
C273        H276   1.083       .  S
C274       C1484   1.483       .  S
N277        C281   1.367       .  A
N277        C278   1.365   1_545  A
N277        C907   1.457       .  S
C278       C1470   1.486       .  S
C278        C279   1.380       .  A
C279        C280   1.365   1_565  A
C279        H282   1.082       .  S
C280        C281   1.380       .  A
C280        H283   1.082       .  S
C281        C893   1.490       .  S
N284        C289   1.357       .  A
N284        C288   1.355       .  A
N284        H316   1.037       .  S
N285        C292   1.355       .  A
N285        C293   1.356       .  A
N286        C291   1.357       .  A
N286        C290   1.356       .  A
N286        H317   1.037       .  S
N287        C294   1.353       .  A
N287        C295   1.352       .  A
C288        C296   1.388       .  A
C288        C304   1.422   1_565  A
C289        C305   1.420       .  A
C289        C297   1.386       .  A
C290        C298   1.387       .  A
C290        C307   1.421       .  A
C291        C306   1.423       .  A
C291        C299   1.388       .  A
C292        C304   1.421       .  A
C292        C300   1.386       .  A
C293        C307   1.421       .  A
C293        C301   1.387       .  A
C294        C302   1.386       .  A
C294        C305   1.416       .  A
C295        C303   1.386       .  A
C295        C306   1.416   1_565  A
C296        C297   1.377       .  A
C296        H308   1.082       .  S
C297        H309   1.082       .  S
C298        C299   1.379       .  A
C298        H310   1.082       .  S
C299        H311   1.083       .  S
C300        C301   1.376       .  A
C300        H312   1.082       .  S
C301        H313   1.083       .  S
C302        C303   1.373       .  A
C302        H314   1.082       .  S
C303        H315   1.083       .  S
C304        C910   1.506       .  S
C305        C924   1.506       .  S
C306        C938   1.505       .  S
C307        C879   1.507       .  S
N318        C322   1.366       .  A
N318        C319   1.363       .  A
N318        C882   1.454       .  S
C319        C868   1.488       .  S
C319        C320   1.382       .  A
C320        C321   1.367       .  A
C320        H323   1.082       .  S
C321        C322   1.380       .  A
C321        H324   1.082       .  S
C322        C977   1.492       .  S
Zn325       O329   1.929       .  S
Zn325       O330   2.014       .  S
Zn325       O334   2.007       .  S
Zn325       O341   2.015       .  S
Zn326       O329   1.930       .  S
Zn326       O331   2.037       .  S
Zn326       O333   2.025       .  S
Zn326       O337   2.028       .  S
Zn327       O329   1.936       .  S
Zn327       O332   2.024       .  S
Zn327       O335   2.010       .  S
Zn327       O338   2.015       .  S
Zn328       O329   1.935       .  S
Zn328       O336   2.017       .  S
Zn328       O339   1.999       .  S
Zn328       O340   2.021       .  S
O330        C342   1.273       .  A
O331        C343   1.278       .  A
O332        C344   1.275       .  A
O333        C342   1.276       .  A
O334        C344   1.273       .  A
O335        C343   1.273       .  A
O336        C345   1.274       .  A
O337        C346   1.276       .  A
O338        C345   1.275       .  A
O339        C346   1.271       .  A
O340        C347   1.275       .  A
O341        C347   1.274       .  A
C342        C896   1.496       .  S
C343        C851   1.486       .  S
C344        C865   1.503       .  S
C345        C840   1.501       .  S
C346        C812   1.480       .  S
C347        C823   1.504       .  S
N348        C352   1.366       .  A
N348        C349   1.370   1_554  A
N348        C798   1.456       .  S
C349       C1456   1.497       .  S
C349        C350   1.380       .  A
C350        C351   1.367   1_556  A
C350        H353   1.082       .  S
C351        C352   1.382       .  A
C351        H354   1.082       .  S
C352       C1229   1.497       .  S
N355        C359   1.365       .  A
N355        C356   1.361       .  A
N355        C781   1.451       .  S
C356        C837   1.487       .  S
C356        C357   1.382       .  A
C357        C358   1.367       .  A
C357        H360   1.082       .  S
C358        C359   1.381       .  A
C358        H361   1.082       .  S
C359       C1414   1.493       .  S
N362        C366   1.368   1_556  A
N362        C363   1.367       .  A
N362        C770   1.458       .  S
C363        C854   1.491       .  S
C363        C364   1.381       .  A
C364        C365   1.365   1_556  A
C364        H367   1.082       .  S
C365        C366   1.380       .  A
C365        H368   1.082       .  S
C366        C753   1.491       .  S
N369        C374   1.356       .  A
N369        C373   1.354       .  A
N369        H401   1.029       .  S
N370        C377   1.353       .  A
N370        C378   1.354       .  A
N371        C376   1.355       .  A
N371        C375   1.358       .  A
N371        H402   1.037       .  S
N372        C379   1.354       .  A
N372        C380   1.353       .  A
C373        C381   1.388       .  A
C373        C389   1.425       .  A
C374        C390   1.425   1_556  A
C374        C382   1.387       .  A
C375        C383   1.386       .  A
C375        C392   1.421       .  A
C376        C391   1.421       .  A
C376        C384   1.388       .  A
C377        C389   1.422       .  A
C377        C385   1.388       .  A
C378        C392   1.418   1_556  A
C378        C386   1.385       .  A
C379        C387   1.386       .  A
C379        C390   1.422       .  A
C380        C388   1.387       .  A
C380        C391   1.420       .  A
C381        C382   1.376       .  A
C381        H393   1.082       .  S
C382        H394   1.082       .  S
C383        C384   1.377       .  A
C383        H395   1.083       .  S
C384        H396   1.082       .  S
C385        C386   1.371       .  A
C385        H397   1.082       .  S
C386        H398   1.082       .  S
C387        C388   1.375       .  A
C387        H399   1.082       .  S
C388        H400   1.082       .  S
C389        C784   1.502       .  S
C390        C767   1.508       .  S
C391        C742   1.502       .  S
C392        C795   1.508       .  S
N403        C407   1.366       .  A
N403        C404   1.362       .  A
N403        C739   1.456       .  S
C404        C725   1.482       .  S
C404        C405   1.380       .  A
C405        C406   1.363       .  A
C405        H408   1.082       .  S
C406        C407   1.381       .  A
C406        H409   1.082       .  S
C407       C1260   1.489       .  S
N410        C414   1.360       .  A
N410        C411   1.364       .  A
N410        C711   1.450       .  S
C411       C1246   1.493       .  S
C411        C412   1.380       .  A
C412        C413   1.370       .  A
C412        H415   1.082       .  S
C413        C414   1.383       .  A
C413        H416   1.082       .  S
C414       C1190   1.489       .  S
N417        C421   1.364   1_565  A
N417        C418   1.366       .  A
N417        C697   1.455       .  S
C418       C1218   1.493       .  S
C418        C419   1.380       .  A
C419        C420   1.366   1_565  A
C419        H422   1.082       .  S
C420        C421   1.383       .  A
C420        H423   1.082       .  S
C421       C1005   1.491       .  S
N424        C428   1.363   1_565  A
N424        C425   1.365       .  A
N424        C683   1.455       .  S
C425       C1274   1.487       .  S
C425        C426   1.381       .  A
C426        C427   1.365   1_565  A
C426        H429   1.082       .  S
C427        C428   1.382       .  A
C427        H430   1.082       .  S
C428        C669   1.486       .  S
N431        C436   1.356       .  A
N431        C435   1.355       .  A
N431        H463   1.033       .  S
N432        C439   1.353       .  A
N432        C440   1.355       .  A
N433        C438   1.355       .  A
N433        C437   1.357       .  A
N433        H464   1.030       .  S
N434        C441   1.355       .  A
N434        C442   1.354       .  A
C435        C443   1.389       .  A
C435        C451   1.423       .  A
C436        C452   1.421       .  A
C436        C444   1.386       .  A
C437        C445   1.388       .  A
C437        C454   1.426   1_545  A
C438        C453   1.425       .  A
C438        C446   1.388       .  A
C439        C451   1.421       .  A
C439        C447   1.386       .  A
C440        C454   1.424       .  A
C440        C448   1.387       .  A
C441        C449   1.387       .  A
C441        C452   1.421   1_545  A
C442        C450   1.386       .  A
C442        C453   1.421       .  A
C443        C444   1.376       .  A
C443        H455   1.083       .  S
C444        H456   1.083       .  S
C445        C446   1.376       .  A
C445        H457   1.082       .  S
C446        H458   1.082       .  S
C447        C448   1.373       .  A
C447        H459   1.082       .  S
C448        H460   1.082       .  S
C449        C450   1.374       .  A
C449        H461   1.082       .  S
C450        H462   1.082       .  S
C451        C714   1.500       .  S
C452        C700   1.507       .  S
C453        C658   1.502       .  S
C454        C686   1.509       .  S
N465        C469   1.362       .  A
N465        C466   1.365       .  A
N465        C655   1.451       .  S
C466       C1036   1.493       .  S
C466        C467   1.380       .  A
C467        C468   1.369       .  A
C467        H470   1.082       .  S
C468        C469   1.383       .  A
C468        H471   1.082       .  S
C469        C644   1.491       .  S
N472        C476   1.363       .  A
N472        C473   1.366       .  A
N472        C627   1.456       .  S
C473       C1022   1.489       .  S
C473        C474   1.381       .  A
C474        C475   1.363       .  A
C474        H477   1.082       .  S
C475        C476   1.380       .  A
C475        H478   1.082       .  S
C476        C963   1.479       .  S
N479        C483   1.364       .  A
N479        C480   1.366   1_455  A
N479        C613   1.457       .  S
C480        C994   1.489       .  S
C480        C481   1.381       .  A
C481        C482   1.364   1_655  A
C481        H484   1.082       .  S
C482        C483   1.380       .  A
C482        H485   1.082       .  S
C483        C809   1.484       .  S
N486        C490   1.361       .  A
N486        C487   1.364   1_655  A
N486        C602   1.453       .  S
C487        C585   1.489       .  S
C487        C488   1.380       .  A
C488        C489   1.367   1_455  A
C488        H491   1.082       .  S
C489        C490   1.383       .  A
C489        H492   1.082       .  S
C490       C1050   1.487       .  S
N493        C498   1.355       .  A
N493        C497   1.355       .  A
N493        H525   1.033       .  S
N494        C501   1.355       .  A
N494        C502   1.355       .  A
N495        C500   1.357       .  A
N495        C499   1.355       .  A
N495        H526   1.037       .  S
N496        C503   1.353       .  A
N496        C504   1.352       .  A
C497        C505   1.390       .  A
C497        C513   1.426       .  A
C498        C514   1.420       .  A
C498        C506   1.386       .  A
C499        C507   1.387       .  A
C499        C516   1.420   1_655  A
C500        C515   1.421       .  A
C500        C508   1.387       .  A
C501        C513   1.424       .  A
C501        C509   1.388       .  A
C502        C516   1.421       .  A
C502        C510   1.386       .  A
C503        C511   1.387       .  A
C503        C514   1.418   1_655  A
C504        C512   1.385       .  A
C504        C515   1.415       .  A
C505        C506   1.376       .  A
C505        H517   1.082       .  S
C506        H518   1.082       .  S
C507        C508   1.376       .  A
C507        H519   1.082       .  S
C508        H520   1.082       .  S
C509        C510   1.372       .  A
C509        H521   1.081       .  S
C510        H522   1.082       .  S
C511        C512   1.373       .  A
C511        H523   1.082       .  S
C512        H524   1.083       .  S
C513        C571   1.508       .  S
C514        C599   1.502       .  S
C515        C630   1.504       .  S
C516        C616   1.506       .  S
N527        C531   1.361       .  A
N527        C528   1.364       .  A
N527        C574   1.452       .  S
C528        C557   1.489       .  S
C528        C529   1.380       .  A
C529        C530   1.369       .  A
C529        H532   1.082       .  S
C530        C531   1.382       .  A
C530        H533   1.082       .  S
C531        C826   1.488       .  S
Zn534       O538   1.937       .  S
Zn534       O539   2.022       .  S
Zn534       O543   2.035       .  S
Zn534       O550   2.015       .  S
Zn535       O538   1.928       .  S
Zn535       O540   2.015       .  S
Zn535       O542   2.023       .  S
Zn535       O546   2.024       .  S
Zn536       O538   1.937       .  S
Zn536       O541   2.013       .  S
Zn536       O544   2.004       .  S
Zn536       O547   2.024       .  S
Zn537       O538   1.930       .  S
Zn537       O545   2.007       .  S
Zn537       O548   2.001       .  S
Zn537       O549   2.011       .  S
O539        C551   1.273       .  A
O540        C552   1.275       .  A
O541        C553   1.273       .  A
O542        C551   1.274       .  A
O543        C553   1.277       .  A
O544        C552   1.274       .  A
O545        C554   1.273       .  A
O546        C555   1.274       .  A
O547        C554   1.276       .  A
O548        C555   1.271       .  A
O549        C556   1.274       .  A
O550        C556   1.276       .  A
C551        C641   1.481       .  S
C552        C728   1.476       .  S
C553        C756   1.491       .  S
C554        C588   1.489       .  S
C555        C560   1.490       .  S
C556        C672   1.501       .  S
C557        C558   1.415       .  A
C557        C562   1.413       .  A
C558        C559   1.412       .  A
C558        C563   1.450       .  S
C559        C560   1.414       .  A
C559        C566   1.452       .  S
C560        C561   1.414       .  A
C561        C562   1.411       .  A
C561        C564   1.453       .  S
C562        C565   1.449       .  S
C563        N570   1.157       .  T
C564        N569   1.157       .  T
C565        N567   1.156       .  T
C566        N568   1.157       .  T
C571        C572   1.412       .  A
C571        C576   1.414       .  A
C572        C573   1.411       .  A
C572        C577   1.452       .  S
C573        C574   1.414       .  A
C573        C580   1.447       .  S
C574        C575   1.413       .  A
C575        C576   1.417       .  A
C575        C578   1.445       .  S
C576        C579   1.451       .  S
C577        N584   1.157       .  T
C578        N583   1.157       .  T
C579        N581   1.157       .  T
C580        N582   1.157       .  T
C585        C586   1.412       .  A
C585        C590   1.416       .  A
C586        C587   1.409       .  A
C586        C591   1.449       .  S
C587        C588   1.413       .  A
C587        C594   1.450       .  S
C588        C589   1.415       .  A
C589        C590   1.411       .  A
C589        C592   1.453       .  S
C590        C593   1.451       .  S
C591        N598   1.157       .  T
C592        N597   1.158       .  T
C593        N595   1.157       .  T
C594        N596   1.157       .  T
C599        C600   1.413   1_455  A
C599        C604   1.408       .  A
C600        C601   1.417       .  A
C600        C605   1.450       .  S
C601        C602   1.416       .  A
C601        C608   1.446       .  S
C602        C603   1.415   1_655  A
C603        C604   1.410       .  A
C603        C606   1.447       .  S
C604        C607   1.452       .  S
C605        N612   1.157       .  T
C606        N611   1.157       .  T
C607        N609   1.157       .  T
C608        N610   1.157       .  T
C613        C614   1.416   1_455  A
C613        C618   1.417       .  A
C614        C615   1.415       .  A
C614        C619   1.446       .  S
C615        C616   1.410   1_655  A
C615        C622   1.451       .  S
C616        C617   1.410       .  A
C617        C618   1.415       .  A
C617        C620   1.451       .  S
C618        C621   1.444       .  S
C619        N626   1.157       .  T
C620        N625   1.157       .  T
C621        N623   1.157       .  T
C622        N624   1.157       .  T
C627        C628   1.418       .  A
C627        C632   1.414       .  A
C628        C629   1.417       .  A
C628        C633   1.444       .  S
C629        C630   1.410       .  A
C629        C636   1.451       .  S
C630        C631   1.410       .  A
C631        C632   1.413       .  A
C631        C634   1.451       .  S
C632        C635   1.446       .  S
C633        N640   1.157       .  T
C634        N639   1.157       .  T
C635        N637   1.156       .  T
C636        N638   1.157       .  T
C641        C642   1.412       .  A
C641        C646   1.406       .  A
C642        C643   1.415       .  A
C642        C647   1.452       .  S
C643        C644   1.413       .  A
C643        C650   1.448       .  S
C644        C645   1.418       .  A
C645        C646   1.409       .  A
C645        C648   1.451       .  S
C646        C649   1.451       .  S
C647        N654   1.158       .  T
C648        N653   1.157       .  T
C649        N651   1.157       .  T
C650        N652   1.157       .  T
C655        C656   1.413       .  A
C655        C660   1.414       .  A
C656        C657   1.416       .  A
C656        C661   1.445       .  S
C657        C658   1.412       .  A
C657        C664   1.450       .  S
C658        C659   1.410       .  A
C659        C660   1.411       .  A
C659        C662   1.452       .  S
C660        C663   1.447       .  S
C661        N668   1.157       .  T
C662        N667   1.157       .  T
C663        N665   1.157       .  T
C664        N666   1.157       .  T
C669        C670   1.414       .  A
C669        C674   1.409       .  A
C670        C671   1.409       .  A
C670        C675   1.454       .  S
C671        C672   1.421       .  A
C671        C678   1.453       .  S
C672        C673   1.421       .  A
C673        C674   1.411       .  A
C673        C676   1.453       .  S
C674        C677   1.448       .  S
C675        N682   1.157       .  T
C676        N681   1.158       .  T
C677        N679   1.157       .  T
C678        N680   1.158       .  T
C683        C684   1.415       .  A
C683        C688   1.416   1_565  A
C684        C685   1.414       .  A
C684        C689   1.447       .  S
C685        C686   1.411       .  A
C685        C692   1.451       .  S
C686        C687   1.413   1_565  A
C687        C688   1.417       .  A
C687        C690   1.451       .  S
C688        C691   1.446       .  S
C689        N696   1.157       .  T
C690        N695   1.157       .  T
C691        N693   1.157       .  T
C692        N694   1.157       .  T
C697        C698   1.416   1_565  A
C697        C702   1.415       .  A
C698        C699   1.419       .  A
C698        C703   1.446       .  S
C699        C700   1.414   1_545  A
C699        C706   1.450       .  S
C700        C701   1.410       .  A
C701        C702   1.411       .  A
C701        C704   1.452       .  S
C702        C705   1.447       .  S
C703        N710   1.157       .  T
C704        N709   1.157       .  T
C705        N707   1.156       .  T
C706        N708   1.157       .  T
C711        C712   1.413       .  A
C711        C716   1.415       .  A
C712        C713   1.415       .  A
C712        C717   1.445       .  S
C713        C714   1.412       .  A
C713        C720   1.450       .  S
C714        C715   1.409       .  A
C715        C716   1.410       .  A
C715        C718   1.451       .  S
C716        C719   1.448       .  S
C717        N724   1.157       .  T
C718        N723   1.157       .  T
C719        N721   1.157       .  T
C720        N722   1.157       .  T
C725        C726   1.411       .  A
C725        C730   1.416       .  A
C726        C727   1.411       .  A
C726        C731   1.449       .  S
C727        C728   1.412       .  A
C727        C734   1.451       .  S
C728        C729   1.408       .  A
C729        C730   1.404       .  A
C729        C732   1.451       .  S
C730        C733   1.454       .  S
C731        N738   1.157       .  T
C732        N737   1.157       .  T
C733        N735   1.157       .  T
C734        N736   1.157       .  T
C739        C740   1.419       .  A
C739        C744   1.416       .  A
C740        C741   1.415       .  A
C740        C745   1.446       .  S
C741        C742   1.409       .  A
C741        C748   1.451       .  S
C742        C743   1.409       .  A
C743        C744   1.413       .  A
C743        C746   1.452       .  S
C744        C747   1.446       .  S
C745        N752   1.157       .  T
C746        N751   1.157       .  T
C747        N749   1.156       .  T
C748        N750   1.157       .  T
C753        C754   1.418       .  A
C753        C758   1.413       .  A
C754        C755   1.412       .  A
C754        C759   1.451       .  S
C755        C756   1.413       .  A
C755        C762   1.452       .  S
C756        C757   1.413       .  A
C757        C758   1.413       .  A
C757        C760   1.451       .  S
C758        C761   1.448       .  S
C759        N766   1.157       .  T
C760        N765   1.157       .  T
C761        N763   1.157       .  T
C762        N764   1.157       .  T
C767        C768   1.410       .  A
C767        C772   1.411   1_554  A
C768        C769   1.416       .  A
C768        C773   1.451       .  S
C769        C770   1.417   1_554  A
C769        C776   1.446       .  S
C770        C771   1.416       .  A
C771        C772   1.417       .  A
C771        C774   1.444       .  S
C772        C775   1.450       .  S
C773        N780   1.157       .  T
C774        N779   1.157       .  T
C775        N777   1.157       .  T
C776        N778   1.157       .  T
C781        C782   1.415       .  A
C781        C786   1.414       .  A
C782        C783   1.414       .  A
C782        C787   1.446       .  S
C783        C784   1.411       .  A
C783        C790   1.450       .  S
C784        C785   1.411       .  A
C785        C786   1.410       .  A
C785        C788   1.452       .  S
C786        C789   1.448       .  S
C787        N794   1.157       .  T
C788        N793   1.157       .  T
C789        N791   1.157       .  T
C790        N792   1.157       .  T
C795        C796   1.413       .  A
C795        C800   1.410   1_554  A
C796        C797   1.418       .  A
C796        C801   1.450       .  S
C797        C798   1.415       .  A
C797        C804   1.446       .  S
C798        C799   1.418   1_554  A
C799        C800   1.414       .  A
C799        C802   1.446       .  S
C800        C803   1.452       .  S
C801        N808   1.157       .  T
C802        N807   1.156       .  T
C803        N805   1.157       .  T
C804        N806   1.157       .  T
C809        C810   1.411       .  A
C809        C814   1.417       .  A
C810        C811   1.413       .  A
C810        C815   1.449       .  S
C811        C812   1.413       .  A
C811        C818   1.451       .  S
C812        C813   1.409       .  A
C813        C814   1.407       .  A
C813        C816   1.452       .  S
C814        C817   1.453       .  S
C815        N822   1.157       .  T
C816        N821   1.157       .  T
C817        N819   1.157       .  T
C818        N820   1.157       .  T
C823        C824   1.423       .  A
C823        C828   1.421       .  A
C824        C825   1.414       .  A
C824        C829   1.452       .  S
C825        C826   1.409       .  A
C825        C832   1.449       .  S
C826        C827   1.413       .  A
C827        C828   1.410       .  A
C827        C830   1.453       .  S
C828        C831   1.453       .  S
C829        N836   1.158       .  T
C830        N835   1.157       .  T
C831        N833   1.158       .  T
C832        N834   1.157       .  T
C837        C838   1.408       .  A
C837        C842   1.414       .  A
C838        C839   1.412       .  A
C838        C843   1.449       .  S
C839        C840   1.422       .  A
C839        C846   1.452       .  S
C840        C841   1.419       .  A
C841        C842   1.409       .  A
C841        C844   1.452       .  S
C842        C845   1.454       .  S
C843        N850   1.157       .  T
C844        N849   1.158       .  T
C845        N847   1.157       .  T
C846        N848   1.158       .  T
C851        C852   1.410       .  A
C851        C856   1.413       .  A
C852        C853   1.411       .  A
C852        C857   1.452       .  S
C853        C854   1.419       .  A
C853        C860   1.452       .  S
C854        C855   1.413       .  A
C855        C856   1.414       .  A
C855        C858   1.448       .  S
C856        C859   1.451       .  S
C857        N864   1.157       .  T
C858        N863   1.157       .  T
C859        N861   1.157       .  T
C860        N862   1.157       .  T
C865        C866   1.425       .  A
C865        C870   1.420       .  A
C866        C867   1.413       .  A
C866        C871   1.453       .  S
C867        C868   1.407       .  A
C867        C874   1.449       .  S
C868        C869   1.415       .  A
C869        C870   1.410       .  A
C869        C872   1.454       .  S
C870        C873   1.453       .  S
C871        N878   1.158       .  T
C872        N877   1.157       .  T
C873        N875   1.158       .  T
C874        N876   1.157       .  T
C879        C880   1.411       .  A
C879        C884   1.413       .  A
C880        C881   1.414       .  A
C880        C885   1.451       .  S
C881        C882   1.415       .  A
C881        C888   1.448       .  S
C882        C883   1.414       .  A
C883        C884   1.418       .  A
C883        C886   1.446       .  S
C884        C887   1.449       .  S
C885        N892   1.157       .  T
C886        N891   1.157       .  T
C887        N889   1.157       .  T
C888        N890   1.157       .  T
C893        C894   1.416       .  A
C893        C898   1.414       .  A
C894        C895   1.410       .  A
C894        C899   1.451       .  S
C895        C896   1.415       .  A
C895        C902   1.453       .  S
C896        C897   1.417       .  A
C897        C898   1.416       .  A
C897        C900   1.452       .  S
C898        C901   1.450       .  S
C899        N906   1.157       .  T
C900        N905   1.158       .  T
C901        N903   1.157       .  T
C902        N904   1.158       .  T
C907        C908   1.417   1_545  A
C907        C912   1.416       .  A
C908        C909   1.418       .  A
C908        C913   1.444       .  S
C909        C910   1.410   1_565  A
C909        C916   1.451       .  S
C910        C911   1.409       .  A
C911        C912   1.415       .  A
C911        C914   1.451       .  S
C912        C915   1.445       .  S
C913        N920   1.157       .  T
C914        N919   1.157       .  T
C915        N917   1.157       .  T
C916        N918   1.157       .  T
C921        C922   1.417       .  A
C921        C926   1.417       .  A
C922        C923   1.417       .  A
C922        C927   1.445       .  S
C923        C924   1.411       .  A
C923        C930   1.451       .  S
C924        C925   1.409       .  A
C925        C926   1.415       .  A
C925        C928   1.451       .  S
C926        C929   1.445       .  S
C927        N934   1.157       .  T
C928        N933   1.157       .  T
C929        N931   1.157       .  T
C930        N932   1.157       .  T
C935        C936   1.415   1_545  A
C935        C940   1.418       .  A
C936        C937   1.413   1_565  A
C936        C941   1.448       .  S
C937        C938   1.412       .  A
C937        C944   1.451   1_545  S
C938        C939   1.411       .  A
C939        C940   1.416       .  A
C939        C942   1.450       .  S
C940        C943   1.447       .  S
C941        N948   1.157       .  T
C942        N947   1.157       .  T
C943        N945   1.157       .  T
C944        N946   1.157       .  T
C949        C950   1.419       .  A
C949        C954   1.420       .  A
C950        C951   1.407       .  A
C950        C955   1.453       .  S
C951        C952   1.416       .  A
C951        C958   1.455       .  S
C952        C953   1.410       .  A
C953        C954   1.413       .  A
C953        C956   1.449       .  S
C954        C957   1.452       .  S
C955        N962   1.158       .  T
C956        N961   1.157       .  T
C957        N959   1.158       .  T
C958        N960   1.157       .  T
C963        C964   1.414       .  A
C963        C968   1.411       .  A
C964        C965   1.404       .  A
C964        C969   1.453       .  S
C965        C966   1.410       .  A
C965        C972   1.452       .  S
C966        C967   1.412       .  A
C967        C968   1.413       .  A
C967        C970   1.451       .  S
C968        C971   1.449       .  S
C969        N976   1.157       .  T
C970        N975   1.157       .  T
C971        N973   1.157       .  T
C972        N974   1.157       .  T
C977        C978   1.415       .  A
C977        C982   1.415       .  A
C978        C979   1.411       .  A
C978        C983   1.451       .  S
C979        C980   1.417       .  A
C979        C986   1.453       .  S
C980        C981   1.415       .  A
C981        C982   1.415       .  A
C981        C984   1.452       .  S
C982        C985   1.449       .  S
C983        N990   1.157       .  T
C984        N989   1.157       .  T
C985        N987   1.156       .  T
C986        N988   1.157       .  T
C991        C992   1.412       .  A
C991        C996   1.411       .  A
C992        C993   1.410       .  A
C992        C997   1.453       .  S
C993        C994   1.418       .  A
C993       C1000   1.452       .  S
C994        C995   1.414       .  A
C995        C996   1.412       .  A
C995        C998   1.447       .  S
C996        C999   1.452       .  S
C997       N1004   1.158       .  T
C998       N1003   1.156       .  T
C999       N1001   1.157       .  T
C1000      N1002   1.157       .  T
C1005      C1006   1.416       .  A
C1005      C1010   1.409       .  A
C1006      C1007   1.410       .  A
C1006      C1011   1.454       .  S
C1007      C1008   1.419       .  A
C1007      C1014   1.453       .  S
C1008      C1009   1.421       .  A
C1009      C1010   1.413       .  A
C1009      C1012   1.452       .  S
C1010      C1013   1.448       .  S
C1011      N1018   1.157       .  T
C1012      N1017   1.158       .  T
C1013      N1015   1.157       .  T
C1014      N1016   1.158       .  T
C1019      C1020   1.414       .  A
C1019      C1024   1.415       .  A
C1020      C1021   1.409       .  A
C1020      C1025   1.453       .  S
C1021      C1022   1.416       .  A
C1021      C1028   1.452       .  S
C1022      C1023   1.414       .  A
C1023      C1024   1.414       .  A
C1023      C1026   1.448       .  S
C1024      C1027   1.453       .  S
C1025      N1032   1.158       .  T
C1026      N1031   1.156       .  T
C1027      N1029   1.158       .  T
C1028      N1030   1.157       .  T
C1033      C1034   1.415       .  A
C1033      C1038   1.416       .  A
C1034      C1035   1.415       .  A
C1034      C1039   1.452       .  S
C1035      C1036   1.414       .  A
C1035      C1042   1.449       .  S
C1036      C1037   1.415       .  A
C1037      C1038   1.413       .  A
C1037      C1040   1.450       .  S
C1038      C1041   1.452       .  S
C1039      N1046   1.157       .  T
C1040      N1045   1.157       .  T
C1041      N1043   1.158       .  T
C1042      N1044   1.156       .  T
C1047      C1048   1.429       .  A
C1047      C1052   1.419       .  A
C1048      C1049   1.414       .  A
C1048      C1053   1.453       .  S
C1049      C1050   1.405       .  A
C1049      C1056   1.450       .  S
C1050      C1051   1.413       .  A
C1051      C1052   1.410       .  A
C1051      C1054   1.454       .  S
C1052      C1055   1.451       .  S
C1053      N1060   1.158       .  T
C1054      N1059   1.157       .  T
C1055      N1057   1.157       .  T
C1056      N1058   1.157       .  T
C1061      C1062   1.415       .  A
C1061      C1066   1.414       .  A
C1062      C1063   1.415       .  A
C1062      C1067   1.449       .  S
C1063      C1064   1.415       .  A
C1063      C1070   1.452       .  S
C1064      C1065   1.415       .  A
C1065      C1066   1.409       .  A
C1065      C1068   1.453       .  S
C1066      C1069   1.451       .  S
C1067      N1074   1.157       .  T
C1068      N1073   1.158       .  T
C1069      N1071   1.157       .  T
C1070      N1072   1.158       .  T
C1075      C1076   1.410       .  A
C1075      C1080   1.414       .  A
C1076      C1077   1.411       .  A
C1076      C1081   1.451       .  S
C1077      C1078   1.414       .  A
C1077      C1084   1.447       .  S
C1078      C1079   1.412       .  A
C1079      C1080   1.418       .  A
C1079      C1082   1.446       .  S
C1080      C1083   1.449       .  S
C1081      N1088   1.157       .  T
C1082      N1087   1.157       .  T
C1083      N1085   1.157       .  T
C1084      N1086   1.157       .  T
C1089      C1090   1.425       .  A
C1089      C1094   1.428       .  A
C1090      C1091   1.413       .  A
C1090      C1095   1.453       .  S
C1091      C1092   1.416       .  A
C1091      C1098   1.455       .  S
C1092      C1093   1.408       .  A
C1093      C1094   1.417       .  A
C1093      C1096   1.449       .  S
C1094      C1097   1.452       .  S
C1095      N1102   1.158       .  T
C1096      N1101   1.157       .  T
C1097      N1099   1.158       .  T
C1098      N1100   1.157       .  T
C1103      C1104   1.419       .  A
C1103      C1108   1.414       .  A
C1104      C1105   1.412       .  A
C1104      C1109   1.452       .  S
C1105      C1106   1.413       .  A
C1105      C1112   1.453       .  S
C1106      C1107   1.414       .  A
C1107      C1108   1.415       .  A
C1107      C1110   1.451       .  S
C1108      C1111   1.448       .  S
C1109      N1116   1.158       .  T
C1110      N1115   1.157       .  T
C1111      N1113   1.157       .  T
C1112      N1114   1.158       .  T
C1117      C1118   1.411       .  A
C1117      C1122   1.412   1_556  A
C1118      C1119   1.416       .  A
C1118      C1123   1.451       .  S
C1119      C1120   1.417       .  A
C1119      C1126   1.447       .  S
C1120      C1121   1.416   1_556  A
C1121      C1122   1.416       .  A
C1121      C1124   1.446       .  S
C1122      C1125   1.450       .  S
C1123      N1130   1.157       .  T
C1124      N1129   1.157       .  T
C1125      N1127   1.157       .  T
C1126      N1128   1.157       .  T
C1131      C1132   1.413       .  A
C1131      C1136   1.408       .  A
C1132      C1133   1.412       .  A
C1132      C1137   1.452       .  S
C1133      C1134   1.411       .  A
C1133      C1140   1.448       .  S
C1134      C1135   1.418       .  A
C1135      C1136   1.411       .  A
C1135      C1138   1.452       .  S
C1136      C1139   1.451       .  S
C1137      N1144   1.157       .  T
C1138      N1143   1.157       .  T
C1139      N1141   1.157       .  T
C1140      N1142   1.157       .  T
C1145      C1146   1.415       .  A
C1145      C1150   1.414       .  A
C1146      C1147   1.413       .  A
C1146      C1151   1.446       .  S
C1147      C1148   1.410       .  A
C1147      C1154   1.451       .  S
C1148      C1149   1.412       .  A
C1149      C1150   1.418       .  A
C1149      C1152   1.450       .  S
C1150      C1153   1.445       .  S
C1151      N1158   1.157       .  T
C1152      N1157   1.157       .  T
C1153      N1155   1.157       .  T
C1154      N1156   1.157       .  T
C1159      C1160   1.412       .  A
C1159      C1164   1.413   1_554  A
C1160      C1161   1.415       .  A
C1160      C1165   1.451       .  S
C1161      C1162   1.415       .  A
C1161      C1168   1.446       .  S
C1162      C1163   1.415   1_554  A
C1163      C1164   1.416       .  A
C1163      C1166   1.447       .  S
C1164      C1167   1.450       .  S
C1165      N1172   1.157       .  T
C1166      N1171   1.157       .  T
C1167      N1169   1.157       .  T
C1168      N1170   1.157       .  T
C1173      C1174   1.410       .  A
C1173      C1178   1.412       .  A
C1174      C1175   1.409       .  A
C1174      C1179   1.453       .  S
C1175      C1176   1.419       .  A
C1175      C1182   1.453       .  S
C1176      C1177   1.414       .  A
C1177      C1178   1.414       .  A
C1177      C1180   1.448       .  S
C1178      C1181   1.452       .  S
C1179      N1186   1.157       .  T
C1180      N1185   1.157       .  T
C1181      N1183   1.157       .  T
C1182      N1184   1.157       .  T
C1187      C1188   1.424       .  A
C1187      C1192   1.419       .  A
C1188      C1189   1.414       .  A
C1188      C1193   1.453       .  S
C1189      C1190   1.408       .  A
C1189      C1196   1.449       .  S
C1190      C1191   1.414       .  A
C1191      C1192   1.410       .  A
C1191      C1194   1.453       .  S
C1192      C1195   1.452       .  S
C1193      N1200   1.158       .  T
C1194      N1199   1.157       .  T
C1195      N1197   1.158       .  T
C1196      N1198   1.157       .  T
C1201      C1202   1.418       .  A
C1201      C1206   1.423       .  A
C1202      C1203   1.411       .  A
C1202      C1207   1.452       .  S
C1203      C1204   1.416       .  A
C1203      C1210   1.454       .  S
C1204      C1205   1.409       .  A
C1205      C1206   1.415       .  A
C1205      C1208   1.448       .  S
C1206      C1209   1.452       .  S
C1207      N1214   1.158       .  T
C1208      N1213   1.157       .  T
C1209      N1211   1.158       .  T
C1210      N1212   1.157       .  T
C1215      C1216   1.419       .  A
C1215      C1220   1.418       .  A
C1216      C1217   1.411       .  A
C1216      C1221   1.454       .  S
C1217      C1218   1.415       .  A
C1217      C1224   1.452       .  S
C1218      C1219   1.414       .  A
C1219      C1220   1.415       .  A
C1219      C1222   1.449       .  S
C1220      C1223   1.451       .  S
C1221      N1228   1.158       .  T
C1222      N1227   1.156       .  T
C1223      N1225   1.157       .  T
C1224      N1226   1.157       .  T
C1229      C1230   1.410       .  A
C1229      C1234   1.417       .  A
C1230      C1231   1.416       .  A
C1230      C1235   1.448       .  S
C1231      C1232   1.423       .  A
C1231      C1238   1.452       .  S
C1232      C1233   1.419       .  A
C1233      C1234   1.413       .  A
C1233      C1236   1.452       .  S
C1234      C1237   1.454       .  S
C1235      N1242   1.157       .  T
C1236      N1241   1.158       .  T
C1237      N1239   1.157       .  T
C1238      N1240   1.158       .  T
C1243      C1244   1.417       .  A
C1243      C1248   1.414       .  A
C1244      C1245   1.413       .  A
C1244      C1249   1.453       .  S
C1245      C1246   1.415       .  A
C1245      C1252   1.451       .  S
C1246      C1247   1.414       .  A
C1247      C1248   1.413       .  A
C1247      C1250   1.448       .  S
C1248      C1251   1.452       .  S
C1249      N1256   1.158       .  T
C1250      N1255   1.156       .  T
C1251      N1253   1.157       .  T
C1252      N1254   1.157       .  T
C1257      C1258   1.418       .  A
C1257      C1262   1.420       .  A
C1258      C1259   1.408       .  A
C1258      C1263   1.453       .  S
C1259      C1260   1.416       .  A
C1259      C1266   1.453       .  S
C1260      C1261   1.412       .  A
C1261      C1262   1.414       .  A
C1261      C1264   1.449       .  S
C1262      C1265   1.453       .  S
C1263      N1270   1.158       .  T
C1264      N1269   1.156       .  T
C1265      N1267   1.158       .  T
C1266      N1268   1.158       .  T
C1271      C1272   1.412       .  A
C1271      C1276   1.411       .  A
C1272      C1273   1.410       .  A
C1272      C1277   1.453       .  S
C1273      C1274   1.413       .  A
C1273      C1280   1.448       .  S
C1274      C1275   1.418       .  A
C1275      C1276   1.410       .  A
C1275      C1278   1.452       .  S
C1276      C1279   1.453       .  S
C1277      N1284   1.157       .  T
C1278      N1283   1.158       .  T
C1279      N1281   1.158       .  T
C1280      N1282   1.156       .  T
C1285      C1286   1.417       .  A
C1285      C1290   1.415       .  A
C1286      C1287   1.409       .  A
C1286      C1291   1.453       .  S
C1287      C1288   1.414       .  A
C1287      C1294   1.451       .  S
C1288      C1289   1.414       .  A
C1289      C1290   1.413       .  A
C1289      C1292   1.449       .  S
C1290      C1293   1.452       .  S
C1291      N1298   1.158       .  T
C1292      N1297   1.156       .  T
C1293      N1295   1.157       .  T
C1294      N1296   1.157       .  T
C1299      C1300   1.412       .  A
C1299      C1304   1.410       .  A
C1300      C1301   1.416       .  A
C1300      C1305   1.450       .  S
C1301      C1302   1.413       .  A
C1301      C1308   1.446       .  S
C1302      C1303   1.414       .  A
C1303      C1304   1.409       .  A
C1303      C1306   1.447       .  S
C1304      C1307   1.452       .  S
C1305      N1312   1.157       .  T
C1306      N1311   1.157       .  T
C1307      N1309   1.157       .  T
C1308      N1310   1.157       .  T
C1313      C1314   1.419       .  A
C1313      C1318   1.427       .  A
C1314      C1315   1.413       .  A
C1314      C1319   1.451       .  S
C1315      C1316   1.415       .  A
C1315      C1322   1.453       .  S
C1316      C1317   1.408       .  A
C1317      C1318   1.416       .  A
C1317      C1320   1.449       .  S
C1318      C1321   1.453       .  S
C1319      N1326   1.158       .  T
C1320      N1325   1.157       .  T
C1321      N1323   1.158       .  T
C1322      N1324   1.157       .  T
C1327      C1328   1.415       .  A
C1327      C1332   1.415       .  A
C1328      C1329   1.412       .  A
C1328      C1333   1.450       .  S
C1329      C1330   1.415       .  A
C1329      C1336   1.453       .  S
C1330      C1331   1.415       .  A
C1331      C1332   1.415       .  A
C1331      C1334   1.452       .  S
C1332      C1335   1.449       .  S
C1333      N1340   1.157       .  T
C1334      N1339   1.158       .  T
C1335      N1337   1.156       .  T
C1336      N1338   1.158       .  T
C1341      C1342   1.415       .  A
C1341      C1346   1.412   1_655  A
C1342      C1343   1.412       .  A
C1342      C1347   1.447       .  S
C1343      C1344   1.411       .  A
C1343      C1350   1.451       .  S
C1344      C1345   1.414   1_655  A
C1345      C1346   1.416       .  A
C1345      C1348   1.450       .  S
C1346      C1349   1.446       .  S
C1347      N1354   1.157       .  T
C1348      N1353   1.157       .  T
C1349      N1351   1.157       .  T
C1350      N1352   1.157       .  T
C1355      C1356   1.417       .  A
C1355      C1360   1.415   1_455  A
C1356      C1357   1.416       .  A
C1356      C1361   1.445       .  S
C1357      C1358   1.412       .  A
C1357      C1364   1.451       .  S
C1358      C1359   1.411   1_455  A
C1359      C1360   1.415       .  A
C1359      C1362   1.451       .  S
C1360      C1363   1.447       .  S
C1361      N1368   1.157       .  T
C1362      N1367   1.157       .  T
C1363      N1365   1.157       .  T
C1364      N1366   1.157       .  T
C1369      C1370   1.420       .  A
C1369      C1374   1.415       .  A
C1370      C1371   1.412       .  A
C1370      C1375   1.452       .  S
C1371      C1372   1.410       .  A
C1371      C1378   1.452       .  S
C1372      C1373   1.411       .  A
C1373      C1374   1.414       .  A
C1373      C1376   1.453       .  S
C1374      C1377   1.446       .  S
C1375      N1382   1.157       .  T
C1376      N1381   1.157       .  T
C1377      N1379   1.156       .  T
C1378      N1380   1.157       .  T
C1383      C1384   1.410       .  A
C1383      C1388   1.411       .  A
C1384      C1385   1.414       .  A
C1384      C1389   1.451       .  S
C1385      C1386   1.416       .  A
C1385      C1392   1.445       .  S
C1386      C1387   1.415       .  A
C1387      C1388   1.415       .  A
C1387      C1390   1.446       .  S
C1388      C1391   1.450       .  S
C1389      N1396   1.157       .  T
C1390      N1395   1.157       .  T
C1391      N1393   1.157       .  T
C1392      N1394   1.157       .  T
C1397      C1398   1.411       .  A
C1397      C1402   1.417       .  A
C1398      C1399   1.411       .  A
C1398      C1403   1.449       .  S
C1399      C1400   1.413       .  A
C1399      C1406   1.452       .  S
C1400      C1401   1.408       .  A
C1401      C1402   1.407       .  A
C1401      C1404   1.451       .  S
C1402      C1405   1.453       .  S
C1403      N1410   1.157       .  T
C1404      N1409   1.157       .  T
C1405      N1407   1.157       .  T
C1406      N1408   1.157       .  T
C1411      C1412   1.413       .  A
C1411      C1416   1.417       .  A
C1412      C1413   1.411       .  A
C1412      C1417   1.451       .  S
C1413      C1414   1.414       .  A
C1413      C1420   1.446       .  S
C1414      C1415   1.417       .  A
C1415      C1416   1.412       .  A
C1415      C1418   1.452       .  S
C1416      C1419   1.453       .  S
C1417      N1424   1.157       .  T
C1418      N1423   1.157       .  T
C1419      N1421   1.158       .  T
C1420      N1422   1.156       .  T
C1425      C1426   1.412       .  A
C1425      C1430   1.414       .  A
C1426      C1427   1.406       .  A
C1426      C1431   1.453       .  S
C1427      C1428   1.416       .  A
C1427      C1434   1.453       .  S
C1428      C1429   1.412       .  A
C1429      C1430   1.410       .  A
C1429      C1432   1.449       .  S
C1430      C1433   1.453       .  S
C1431      N1438   1.157       .  T
C1432      N1437   1.157       .  T
C1433      N1435   1.157       .  T
C1434      N1436   1.157       .  T
C1439      C1440   1.422       .  A
C1439      C1444   1.419       .  A
C1440      C1441   1.415       .  A
C1440      C1445   1.452       .  S
C1441      C1442   1.409       .  A
C1441      C1448   1.448       .  S
C1442      C1443   1.414       .  A
C1443      C1444   1.409       .  A
C1443      C1446   1.454       .  S
C1444      C1447   1.452       .  S
C1445      N1452   1.158       .  T
C1446      N1451   1.157       .  T
C1447      N1449   1.157       .  T
C1448      N1450   1.157       .  T
C1453      C1454   1.417       .  A
C1453      C1458   1.420       .  A
C1454      C1455   1.411       .  A
C1454      C1459   1.453       .  S
C1455      C1456   1.416       .  A
C1455      C1462   1.450       .  S
C1456      C1457   1.415       .  A
C1457      C1458   1.418       .  A
C1457      C1460   1.450       .  S
C1458      C1461   1.452       .  S
C1459      N1466   1.158       .  T
C1460      N1465   1.157       .  T
C1461      N1463   1.158       .  T
C1462      N1464   1.157       .  T
C1467      C1468   1.410       .  A
C1467      C1472   1.411       .  A
C1468      C1469   1.410       .  A
C1468      C1473   1.452       .  S
C1469      C1470   1.417       .  A
C1469      C1476   1.453       .  S
C1470      C1471   1.412       .  A
C1471      C1472   1.413       .  A
C1471      C1474   1.448       .  S
C1472      C1475   1.451       .  S
C1473      N1480   1.157       .  T
C1474      N1479   1.157       .  T
C1475      N1477   1.157       .  T
C1476      N1478   1.157       .  T
C1481      C1482   1.414       .  A
C1481      C1486   1.411       .  A
C1482      C1483   1.414       .  A
C1482      C1487   1.451       .  S
C1483      C1484   1.412       .  A
C1483      C1490   1.449       .  S
C1484      C1485   1.416       .  A
C1485      C1486   1.406       .  A
C1485      C1488   1.454       .  S
C1486      C1489   1.452       .  S
C1487      N1494   1.157       .  T
C1488      N1493   1.157       .  T
C1489      N1491   1.157       .  T
C1490      N1492   1.157       .  T
C1495      C1496   1.417       .  A
C1495      C1500   1.416       .  A
C1496      C1497   1.417       .  A
C1496      C1501   1.452       .  S
C1497      C1498   1.415       .  A
C1497      C1504   1.449       .  S
C1498      C1499   1.414       .  A
C1499      C1500   1.412       .  A
C1499      C1502   1.450       .  S
C1500      C1503   1.453       .  S
C1501      N1508   1.157       .  T
C1502      N1507   1.157       .  T
C1503      N1505   1.158       .  T
C1504      N1506   1.157       .  T
C1509      C1510   1.412       .  A
C1509      C1514   1.416       .  A
C1510      C1511   1.409       .  A
C1510      C1515   1.452       .  S
C1511      C1512   1.416       .  A
C1511      C1518   1.452       .  S
C1512      C1513   1.413       .  A
C1513      C1514   1.414       .  A
C1513      C1516   1.449       .  S
C1514      C1517   1.452       .  S
C1515      N1522   1.157       .  T
C1516      N1521   1.157       .  T
C1517      N1519   1.158       .  T
C1518      N1520   1.157       .  T
C1523      C1524   1.410       .  A
C1523      C1528   1.407       .  A
C1524      C1525   1.410       .  A
C1524      C1529   1.452       .  S
C1525      C1526   1.414       .  A
C1525      C1532   1.447       .  S
C1526      C1527   1.421       .  A
C1527      C1528   1.410       .  A
C1527      C1530   1.452       .  S
C1528      C1531   1.451       .  S
C1529      N1536   1.157       .  T
C1530      N1535   1.157       .  T
C1531      N1533   1.157       .  T
C1532      N1534   1.157       .  T
C1537      C1538   1.410       .  A
C1537      C1542   1.411       .  A
C1538      C1539   1.411       .  A
C1538      C1543   1.452       .  S
C1539      C1540   1.423       .  A
C1539      C1546   1.453       .  S
C1540      C1541   1.416       .  A
C1541      C1542   1.413       .  A
C1541      C1544   1.446       .  S
C1542      C1545   1.452       .  S
C1543      N1550   1.157       .  T
C1544      N1549   1.156       .  T
C1545      N1547   1.157       .  T
C1546      N1548   1.158       .  T
C1551      C1552   1.414       .  A
C1551      C1556   1.413       .  A
C1552      C1553   1.410       .  A
C1552      C1557   1.452       .  S
C1553      C1554   1.417       .  A
C1553      C1560   1.453       .  S
C1554      C1555   1.412       .  A
C1555      C1556   1.409       .  A
C1555      C1558   1.448       .  S
C1556      C1559   1.452       .  S
C1557      N1564   1.158       .  T
C1558      N1563   1.156       .  T
C1559      N1561   1.157       .  T
C1560      N1562   1.158       .  T
