geometry optimzed in LAMMPS
_audit_creation_date              2020-11-30 
_audit_creation_method            'lammps2cif' 
_symmetry_space_group_name_H-M    'P1' 
_symmetry_Int_Tables_number       1 
_symmetry_cell_setting            triclinic 
loop_ 
_symmetry_equiv_pos_as_xyz 
  x,y,z 
_cell_length_a                    33.19729077 
_cell_length_b                    33.207816884477836 
_cell_length_c                    81.12400997443716 
_cell_angle_alpha                 90.18294849540666 
_cell_angle_beta                  89.92590468155495 
_cell_angle_gamma                 120.09740753519729 
loop_ 
_atom_site_label 
_atom_site_type_symbol 
_atom_site_fract_x 
_atom_site_fract_y 
_atom_site_fract_z 
_atom_site_charge 
O1          O  0.08496400  0.29747405  0.32683761    -0.87700
C2          C  0.19290828  0.37858375  0.29582012     0.88300
Mg3        Mg  0.07620679  0.32233904  0.35033551     1.58100
O4          O  0.20346832  0.29091058  0.31615627    -0.87500
O5          O  0.09351182  0.24119591  0.31652706    -0.74800
C6          C  0.28268144  0.41482459  0.38573851     0.93400
O7          O  0.13509688  0.40833933  0.32167131    -0.74600
O8          O  0.24881979  0.42238891  0.38468298    -0.82100
Mg9        Mg  0.09556967  0.34189210  0.30603087     1.58000
C10         C  0.32939189  0.32287502  0.33794359     0.93300
O11         O  0.05337289  0.28155194  0.28791503    -0.80400
H12         H  0.17833872  0.22355507  0.32105841    -0.05700
C13         C  0.27389041  0.41980322  0.33681613     0.88200
O14         O  0.11061866  0.28685017  0.36376479    -0.74900
O15         O  0.15924519  0.34194218  0.30074309    -0.87600
O16         O  0.31322040  0.32432387  0.32384734    -0.80400
C17         C  0.24968504  0.30935783  0.27539636     0.93400
C18         C  0.06256597  0.25937884  0.27711215     0.93200
Mg19       Mg  0.24718234  0.33179941  0.35665800     1.58000
O20         O  0.28887472  0.38953900  0.37537146    -0.80400
O21         O  0.20684066  0.26635459  0.34076542    -0.74600
O22         O  0.20717403  0.29861875  0.27655830    -0.80500
O23         O  0.02849709  0.34162365  0.31171756    -0.82200
O24         O  0.13919124  0.38360038  0.38550289    -0.80500
C25         C  0.19601956  0.25890559  0.32563412     0.87700
O26         O  0.18546670  0.33491713  0.36195637    -0.87600
O27         O  0.26089056  0.37787882  0.33591502    -0.87700
O28         O  0.25301483  0.43494330  0.34581768    -0.74800
Mg29       Mg  0.15260329  0.27456144  0.29740881     1.58000
O30         O  0.27760121  0.32577206  0.28754830    -0.82200
H31         H  0.04403701  0.23101665  0.33338109    -0.05900
O32         O  0.14190431  0.38570949  0.34627624    -0.87400
H33         H  0.16490890  0.45250722  0.34097452    -0.05700
H34         H  0.15902234  0.27552548  0.37463298    -0.05900
C35         C  0.14765519  0.41691978  0.33665257     0.87700
C36         C  0.07260896  0.25570340  0.32583042     0.88200
C37         C  0.15230329  0.29859598  0.36727536     0.88300
H38         H  0.30288304  0.44407536  0.32932821    -0.05900
O39         O  0.23448567  0.38911344  0.29912654    -0.74900
Mg40       Mg  0.19397265  0.40365690  0.36490498     1.58000
H41         H  0.18682581  0.40263160  0.28881803    -0.05900
C42         C  0.01287149  0.34846480  0.32511865     0.93300
O43         O  0.06696931  0.34748488  0.37541705    -0.82100
C44         C  0.09559190  0.36792536  0.38714512     0.93300
O45         O  0.09909467  0.25632142  0.27773600    -0.82100
Mg46       Mg  0.26926917  0.35299777  0.31237380     1.58200
O47         O  0.03187535  0.35076753  0.33900603    -0.80400
O48         O  0.31235006  0.32821699  0.35127461    -0.82100
C49         C  0.34275328  0.18974032  0.18152448     0.02900
C50         C  0.34351099  0.14745066  0.18145454     0.02900
C51         C  0.35767677  0.13386629  0.16719633    -0.17600
C52         C  0.37033192  0.16124207  0.15299395     0.02900
C53         C  0.36935888  0.20310873  0.15297737     0.02900
C54         C  0.35549451  0.21701380  0.16716690    -0.17600
H55         H  0.35522275  0.24953471  0.16708584     0.04900
H56         H  0.35742129  0.10107018  0.16698017     0.04900
C57         C  0.82127261  0.12660923  0.18092870     0.02900
C58         C  0.86458968  0.16817560  0.18005288     0.02900
C59         C  0.87871998  0.19327702  0.16531696    -0.17600
C60         C  0.84986228  0.17820530  0.15137899     0.02900
C61         C  0.80613126  0.13676490  0.15222256     0.02900
C62         C  0.79235842  0.11122732  0.16699390    -0.17600
H63         H  0.75868111  0.07969006  0.16772535     0.04900
H64         H  0.91207387  0.22527675  0.16478594     0.04900
O65         O  0.26881001  0.87450643  0.33333824    -0.87700
C66         C  0.16709616  0.85325778  0.36613354     0.88300
Mg67       Mg  0.27409910  0.90571193  0.30964802     1.58100
O68         O  0.15078448  0.75225041  0.34580174    -0.87500
O69         O  0.26131812  0.81057359  0.34396368    -0.74800
C70         C  0.06007695  0.79464461  0.27855975     0.93400
O71         O  0.22054098  0.93641419  0.33922700    -0.74600
O72         O  0.09670273  0.83460828  0.27800947    -0.82100
Mg73       Mg  0.26206180  0.91088958  0.35426237     1.58000
C74         C  0.02021114  0.65954689  0.32637855     0.93300
O75         O  0.30676064  0.89372789  0.37172848    -0.80400
H76         H  0.17401990  0.70907431  0.33977273    -0.05700
C77         C  0.07977048  0.81203061  0.32640159     0.88200
O78         O  0.23627506  0.83437638  0.29697772    -0.74900
O79         O  0.19927025  0.84851001  0.36072605    -0.87600
O80         O  0.03896509  0.67838386  0.34009288    -0.80400
C81         C  0.10874147  0.73005827  0.38723436     0.93400
C82         C  0.29868679  0.86365572  0.38291833     0.93200
Mg83       Mg  0.10006342  0.74751815  0.30605870     1.58000
O84         O  0.05466248  0.76430170  0.28925236    -0.80400
O85         O  0.14225639  0.72261873  0.32100853    -0.74600
O86         O  0.15192030  0.75935581  0.38542851    -0.80500
O87         O  0.32740644  0.97792643  0.34738119    -0.82200
O88         O  0.20719665  0.90338144  0.27531029    -0.80500
C89         C  0.15598722  0.72690212  0.33586153     0.87700
O90         O  0.16193190  0.81026119  0.29931296    -0.87600
O91         O  0.09273439  0.78313136  0.32708291    -0.87700
O92         O  0.09916594  0.84688614  0.31687255    -0.74800
Mg93       Mg  0.20464660  0.78732975  0.36396386     1.58000
O94         O  0.07978039  0.71868084  0.37545718    -0.82200
H95         H  0.30853624  0.84806061  0.32623816    -0.05900
O96         O  0.20981961  0.90518723  0.31465981    -0.87400
H97         H  0.18825800  0.94975487  0.32059344    -0.05700
H98         H  0.18558849  0.77452087  0.28672023    -0.05900
C99         C  0.20584184  0.93148567  0.32449369     0.87700
C100        C  0.28107428  0.84504059  0.33422810     0.88200
C101        C  0.19394288  0.80531161  0.29384032     0.88300
H102        H  0.05215022  0.80827349  0.33446427    -0.05900
O103        O  0.12481086  0.82338274  0.36325303    -0.74900
Mg104      Mg  0.15518894  0.87129900  0.29676014     1.58000
H105        H  0.17516574  0.88417143  0.37311094    -0.05900
C106        C  0.33979242  0.99896185  0.33361966     0.93300
O107        O  0.28030065  0.93805988  0.28455058    -0.82100
C108        C  0.25077977  0.93056319  0.27325981     0.93300
O109        O  0.26152142  0.82418606  0.38307900    -0.82100
Mg110      Mg  0.08654724  0.75169544  0.35059551     1.58200
O111        O  0.31996838  0.97937014  0.32012337    -0.80400
O112        O  0.03523534  0.68043950  0.31272940    -0.82100
O113        O  0.63150700  0.74791061  0.33848252    -0.87700
C114        C  0.70623804  0.85205028  0.37192466     0.88300
Mg115      Mg  0.66005027  0.74385727  0.31521470     1.58100
O116        O  0.61999224  0.86422111  0.35113466    -0.87500
O117        O  0.57313762  0.75393134  0.34824833    -0.74800
C118        C  0.75234358  0.95575595  0.28417763     0.93400
O119        O  0.74222236  0.80137200  0.34570065    -0.74600
O120        O  0.76006134  0.92201650  0.28510187    -0.82100
Mg121      Mg  0.67403014  0.75780377  0.35983061     1.58000
C122        C  0.65318177  0.99316965  0.33184711     0.93300
O123        O  0.61095158  0.71098722  0.37614527    -0.80400
H124        H  0.55311527  0.83945978  0.34537362    -0.05700
C125        C  0.75106186  0.93936982  0.33293062     0.88200
O126        O  0.62444952  0.77914165  0.30222793    -0.74900
O127        O  0.67065850  0.81908366  0.36600186    -0.87600
O128        O  0.65403715  0.97552710  0.34570097    -0.80400
C129        C  0.63446564  0.90378047  0.39290200     0.93400
C130        C  0.58704845  0.71729032  0.38707215     0.93200
Mg131      Mg  0.66518217  0.91461503  0.31180384     1.58000
O132        O  0.72513816  0.96027482  0.29413850    -0.80400
O133        O  0.59802429  0.87130662  0.32648259    -0.74600
O134        O  0.62153290  0.86119572  0.39017283    -0.80500
O135        O  0.67966261  0.69442965  0.35330488    -0.82200
O136        O  0.72236125  0.81366542  0.28214198    -0.80500
C137        C  0.58897191  0.85807840  0.34134413     0.87700
O138        O  0.67001023  0.85408559  0.30577005    -0.87600
O139        O  0.70894781  0.92577509  0.33313252    -0.87700
O140        O  0.76788411  0.92011367  0.32392057    -0.74800
Mg141      Mg  0.60221019  0.80997170  0.36863359     1.58000
O142        O  0.65332154  0.93472407  0.38177323    -0.82200
H143        H  0.56613430  0.70727278  0.33064515    -0.05900
O144        O  0.72098207  0.80983692  0.32108920    -0.87400
H145        H  0.78766420  0.83402629  0.32701037    -0.05700
H146        H  0.61156049  0.82772121  0.29245202    -0.05900
C147        C  0.75172725  0.81540337  0.33092505     0.87700
C148        C  0.58946319  0.73484584  0.33885240     0.88200
C149        C  0.63479462  0.82096458  0.29970687     0.88300
H150        H  0.77395774  0.96729253  0.34111559    -0.05900
O151        O  0.71682194  0.89394996  0.36941171    -0.74900
Mg152      Mg  0.73959274  0.86440864  0.30367236     1.58000
H153        H  0.72950839  0.84509105  0.37907078    -0.05900
C154        C  0.68899926  0.68108268  0.33983774     0.93300
O155        O  0.68978303  0.73994373  0.29041956    -0.82100
C156        C  0.70997111  0.77117717  0.27948935     0.93300
O157        O  0.58324298  0.75346671  0.38743828    -0.82100
Mg158      Mg  0.68165190  0.93004674  0.35661910     1.58200
O159        O  0.68958759  0.69974116  0.32606178    -0.80400
O160        O  0.65952635  0.97794648  0.31825059    -0.82100
C161        C  0.81624478  0.68128669  0.18139434     0.02900
C162        C  0.86342702  0.69280015  0.18053969     0.02900
C163        C  0.88087357  0.68591843  0.16560895    -0.17600
C164        C  0.85231743  0.66887867  0.15157940     0.02900
C165        C  0.80649951  0.66118846  0.15222045     0.02900
C166        C  0.78843164  0.66591341  0.16723352    -0.17600
H167        H  0.75315603  0.65981323  0.16771989     0.04900
H168        H  0.91629447  0.69251900  0.16504457     0.04900
O169        O  0.45644181  0.04391703  0.00263192    -0.87700
C170        C  0.47772578  0.96320518  0.03546094     0.88300
Mg171      Mg  0.42104936  0.01622129  0.97956029     1.58100
O172        O  0.57907617  0.04411347  0.01426689    -0.87500
O173        O  0.52355805  0.09896121  0.01204288    -0.74800
C174        C  0.52704604  0.91353443  0.94599541     0.93400
O175        O  0.39232249  0.93413231  0.00932323    -0.74600
O176        O  0.48766779  0.91127317  0.94616422    -0.82100
Mg177      Mg  0.42182209  0.00259769  0.02408539     1.58000
C178        C  0.66557644  0.00108107  0.99394454     0.93300
O179        O  0.44327320  0.06523086  0.04137226    -0.80400
H180        H  0.62488802  0.11004321  0.00850178    -0.05700
C181        C  0.51255868  0.91297947  0.99471730     0.88200
O182        O  0.49076130  0.04843635  0.96561998    -0.74900
O183        O  0.48390654  0.00042428  0.02987103    -0.87600
O184        O  0.64776808  0.00071021  0.00792242    -0.80400
C185        C  0.60380693  0.02629977  0.05564788     0.93400
C186        C  0.47573587  0.08871411  0.05170067     0.93200
Mg187      Mg  0.57781631  0.99742826  0.97441942     1.58000
O188        O  0.55778817  0.93536020  0.95702640    -0.80400
O189        O  0.60697666  0.06486943  0.98935613    -0.74600
O190        O  0.57861164  0.04482234  0.05339742    -0.80500
O191        O  0.35541084  0.00404236  0.01820260    -0.82200
O192        O  0.42177333  0.95415212  0.94458273    -0.80500
C193        C  0.60496611  0.07431194  0.00438766     0.87700
O194        O  0.51537133  0.99895144  0.96852140    -0.87600
O195        O  0.54269088  0.95454514  0.99558029    -0.87700
O196        O  0.47751232  0.89883135  0.98528349    -0.74800
Mg197      Mg  0.54754839  0.06664011  0.03210475     1.58000
O198        O  0.61026056  0.00345238  0.04432830    -0.82200
H199        H  0.48574214  0.10965345  0.99477709    -0.05900
O200        O  0.42137969  0.95288848  0.98446996    -0.87400
H201        H  0.37603585  0.88726550  0.99078668    -0.05700
H202        H  0.55016862  0.05699587  0.95517091    -0.05900
C203        C  0.39554040  0.92329278  0.99453903     0.87700
C204        C  0.48794650  0.08507405  0.00288491     0.88200
C205        C  0.52001688  0.03533653  0.96267015     0.88300
H206        H  0.51550532  0.88821383  0.00248642    -0.05900
O207        O  0.50556180  0.94850427  0.03230388    -0.74900
Mg208      Mg  0.45320439  0.93212669  0.96578733     1.58000
H209        H  0.44703479  0.94191718  0.04277460    -0.05900
C210        C  0.33257893  0.99409166  0.00477161     0.93300
O211        O  0.38283931  0.98609279  0.95553135    -0.82100
C212        C  0.39064249  0.96581730  0.94367935     0.93300
O213        O  0.51497404  0.09085271  0.05103176    -0.82100
Mg214      Mg  0.57595347  0.97855965  0.01912632     1.58200
O215        O  0.34951602  0.99011921  0.99120221    -0.80400
O216        O  0.64430085  0.99704631  0.98046601    -0.82100
O217        O  0.55027967  0.58604042  0.99487894    -0.87700
C218        C  0.51763176  0.47671242  0.96355370     0.88300
Mg219      Mg  0.58510130  0.59374974  0.01799574     1.58100
O220        O  0.42227160  0.46826726  0.98551869    -0.87500
O221        O  0.48524626  0.57914055  0.98556131    -0.74800
C222        C  0.47286971  0.38598179  0.05271020     0.93400
O223        O  0.60759406  0.53268998  0.98849065    -0.74600
O224        O  0.51342363  0.42112829  0.05140822    -0.82100
Mg225      Mg  0.58107757  0.57313113  0.97352910     1.58000
C226        C  0.32750331  0.34217487  0.00762095     0.93300
O227        O  0.56327203  0.61582637  0.95587065    -0.80400
H228        H  0.38055761  0.49328868  0.99150809    -0.05700
C229        C  0.48117631  0.39644326  0.00422340     0.88200
O230        O  0.51530111  0.55944719  0.03186784    -0.74900
O231        O  0.51573051  0.51074964  0.96875264    -0.87600
O232        O  0.34482154  0.35875246  0.99350139    -0.80400
C233        C  0.39076452  0.42115502  0.94491024     0.93400
C234        C  0.53189058  0.60882421  0.94536950     0.93200
Mg235      Mg  0.42128629  0.42216008  0.02554859     1.58000
O236        O  0.43970085  0.37934772  0.04309978    -0.80400
O237        O  0.39525154  0.46310353  0.01049011    -0.74600
O238        O  0.42043677  0.46434573  0.94639204    -0.80500
O239        O  0.65032674  0.63862080  0.97859898    -0.82200
O240        O  0.57931350  0.52981991  0.05262988    -0.80500
C241        C  0.39829570  0.47524620  0.99550875     0.87700
O242        O  0.48663029  0.48413253  0.03001585    -0.87600
O243        O  0.45192971  0.40911233  0.00417565    -0.87700
O244        O  0.51843137  0.41755411  0.01260358    -0.74800
Mg245      Mg  0.45585331  0.51962005  0.96654312     1.58000
O246        O  0.38118681  0.39256106  0.95668041    -0.82200
H247        H  0.52722179  0.62857595  0.00202681    -0.05900
O248        O  0.58023413  0.52770669  0.01335921    -0.87400
H249        H  0.62271670  0.50342165  0.00764132    -0.05700
H250        H  0.45509493  0.51196832  0.04284445    -0.05900
C251        C  0.60466783  0.52101073  0.00350536     0.87700
C252        C  0.52169690  0.59950493  0.99439517     0.88200
C253        C  0.48453759  0.51793362  0.03536444     0.88300
H254        H  0.47569111  0.36765577  0.99643107    -0.05900
O255        O  0.48682957  0.43534936  0.96722870    -0.74900
Mg256      Mg  0.54692096  0.47603447  0.03189664     1.58000
H257        H  0.54692780  0.48233400  0.95605022    -0.05900
C258        C  0.67401158  0.65386743  0.99179794     0.93300
O259        O  0.62121506  0.60180467  0.04278127    -0.82100
C260        C  0.60937948  0.57266919  0.05453372     0.93300
O261        O  0.49098605  0.57368336  0.94620073    -0.82100
Mg262      Mg  0.41717772  0.40147032  0.98123839     1.58200
O263        O  0.65730108  0.63648061  0.00588313    -0.80400
O264        O  0.35116102  0.35738951  0.02082478    -0.82100
O265        O  0.03314450  0.44541861  0.99735998    -0.87700
C266        C  0.95416592  0.47113476  0.96534004     0.88300
Mg267      Mg  0.00733308  0.41519456  0.02133760     1.58100
O268        O  0.04471504  0.57093593  0.98447249    -0.87500
O269        O  0.09105196  0.50696825  0.98604162    -0.74800
C270        C  0.92395151  0.54180904  0.05448636     0.93400
O271        O  0.92265451  0.38906655  0.99271163    -0.74600
O272        O  0.91552100  0.49989493  0.05438299    -0.82100
Mg273      Mg  0.98784296  0.41005535  0.97676609     1.58000
C274        C  0.01697762  0.67117445  0.00396614     0.93300
O275        O  0.04724602  0.42325308  0.95846280    -0.80400
H276        H  0.11246038  0.61213792  0.98920866    -0.05700
C277        C  0.91672253  0.51971259  0.00616277     0.88200
O278        O  0.04622281  0.48705689  0.03383664    -0.74900
O279        O  0.99105912  0.47422789  0.96997119    -0.87600
O280        O  0.01315780  0.64965472  0.99049134    -0.80400
C281        C  0.02564215  0.59530575  0.94324434     0.93400
C282        C  0.07026815  0.45261741  0.94715755     0.93200
Mg283      Mg  0.00645724  0.58252266  0.02495727     1.58000
O284        O  0.94991006  0.57141407  0.04372237    -0.80400
O285        O  0.07034721  0.60247018  0.00872465    -0.74600
O286        O  0.04044972  0.56684318  0.94520047    -0.80500
O287        O  0.98338707  0.34151592  0.98381133    -0.82200
O288        O  0.95175865  0.42598324  0.05693996    -0.80500
C289        C  0.07718242  0.59621191  0.99377291     0.87700
O290        O  0.00119811  0.51732562  0.03170979    -0.87600
O291        O  0.95900745  0.54672319  0.00475052    -0.87700
O292        O  0.90060460  0.48519697  0.01587023    -0.74800
Mg293      Mg  0.05990531  0.53328279  0.96630774     1.58000
O294        O  0.00585142  0.60487973  0.95481614    -0.82200
H295        H  0.09935807  0.46868595  0.00375311    -0.05900
O296        O  0.94630586  0.42079543  0.01710777    -0.87400
H297        H  0.87895665  0.37950587  0.01172496    -0.05700
H298        H  0.06191894  0.54946658  0.04373436    -0.05900
C299        C  0.91456021  0.39558150  0.00752051     0.87700
C300        C  0.07533166  0.47299268  0.99601504     0.88200
C301        C  0.03708721  0.51917416  0.03686655     0.88300
H302        H  0.89292552  0.52472147  0.99853693    -0.05900
O303        O  0.94401669  0.50237552  0.96867396    -0.74900
Mg304      Mg  0.93162585  0.45893557  0.03545151     1.58000
H305        H  0.92917250  0.44025290  0.95876841    -0.05900
C306        C  0.97484995  0.32081502  0.99764637     0.93300
O307        O  0.97992740  0.38290800  0.04649988    -0.82100
C308        C  0.96254283  0.39423838  0.05839625     0.93300
O309        O  0.07547080  0.49328930  0.94700068    -0.82100
Mg310      Mg  0.98226040  0.57498403  0.98054764     1.58200
O311        O  0.97484767  0.34081873  0.01106790    -0.80400
O312        O  0.01234747  0.65196715  0.01795028    -0.82100
O313        O  0.30210082  0.08223515  0.67137927    -0.87700
C314        C  0.38496796  0.18940596  0.70227594     0.88300
Mg315      Mg  0.32396169  0.07650166  0.64702150     1.58100
O316        O  0.29329329  0.19687450  0.68381025    -0.87500
O317        O  0.24523427  0.08663578  0.68320046    -0.74800
C318        C  0.41213131  0.28699172  0.61399748     0.93400
O319        O  0.41367071  0.13553638  0.67441862    -0.74600
O320        O  0.41743934  0.25161647  0.61370622    -0.82100
Mg321      Mg  0.35011389  0.09352338  0.69108703     1.58000
C322        C  0.31923799  0.32447153  0.66468471     0.93300
O323        O  0.29317391  0.04927231  0.71013164    -0.80400
H324        H  0.22538249  0.17149196  0.67977070    -0.05700
C325        C  0.42013971  0.27286988  0.66214688     0.88200
O326        O  0.28547460  0.11121217  0.63582314    -0.74900
O327        O  0.34813674  0.15509181  0.69775035    -0.87600
O328        O  0.32006751  0.30482787  0.67803742    -0.80400
C329        C  0.31437897  0.24089466  0.72482940     0.93400
C330        C  0.27001567  0.05524673  0.72147700     0.93200
Mg331      Mg  0.33079849  0.24790226  0.64373807     1.58000
O332        O  0.38867360  0.29287593  0.62523012    -0.80400
O333        O  0.26661252  0.20480529  0.66014244    -0.74600
O334        O  0.30515364  0.19896494  0.72334952    -0.80500
O335        O  0.35227777  0.02872975  0.68378688    -0.82200
O336        O  0.37698354  0.14234451  0.61177358    -0.80500
C337        C  0.26036167  0.19049985  0.67494056     0.87700
O338        O  0.33300217  0.18654696  0.63710676    -0.87600
O339        O  0.37814205  0.25903132  0.66362892    -0.87700
O340        O  0.43495105  0.25333902  0.65233180    -0.74800
Mg341      Mg  0.27985269  0.14536223  0.70233898     1.58000
O342        O  0.32878708  0.26914751  0.71282746    -0.82200
H343        H  0.23533928  0.03830476  0.66587247    -0.05900
O344        O  0.38651628  0.14279760  0.65075959    -0.87400
H345        H  0.45436842  0.16717203  0.65452037    -0.05700
H346        H  0.27037162  0.15869246  0.62647729    -0.05900
C347        C  0.41952392  0.14887639  0.65951986     0.87700
C348        C  0.26004523  0.06743368  0.67324606     0.88200
C349        C  0.29566657  0.15272105  0.63269307     0.88300
H350        H  0.44476203  0.30138624  0.66976402    -0.05900
O351        O  0.39395686  0.23067400  0.69931412    -0.74900
Mg352      Mg  0.40114456  0.19559299  0.63278350     1.58000
H353        H  0.41062385  0.18416846  0.70857106    -0.05900
C354        C  0.35783335  0.01452521  0.66983483     0.93300
O355        O  0.34551510  0.06963675  0.62103838    -0.82100
C356        C  0.36246576  0.09925747  0.60944146     0.93300
O357        O  0.26461680  0.09054080  0.72176920    -0.82100
Mg358      Mg  0.35414567  0.26374503  0.68764405     1.58200
O359        O  0.35618397  0.03325468  0.65634322    -0.80400
O360        O  0.32747932  0.31234763  0.65076875    -0.82100
C361        C  0.19717803  0.34789667  0.84695150     0.02900
C362        C  0.15875826  0.35508473  0.84597477     0.02900
C363        C  0.13386778  0.34538904  0.83108799    -0.17600
C364        C  0.14679790  0.32881156  0.81724081     0.02900
C365        C  0.18640755  0.32349857  0.81817274     0.02900
C366        C  0.21035319  0.33192799  0.83313935    -0.17600
H367        H  0.24128930  0.32877527  0.83378704     0.04900
H368        H  0.10367576  0.34974750  0.83039331     0.04900
C369        C  0.18848004  0.84086566  0.84727947     0.02900
C370        C  0.14359201  0.80077936  0.84762869     0.02900
C371        C  0.11345525  0.79140994  0.83417228    -0.17600
C372        C  0.12752960  0.82078768  0.82039049     0.02900
C373        C  0.17207798  0.86099919  0.82016669     0.02900
C374        C  0.20215254  0.87056046  0.83356423    -0.17600
H375        H  0.23611841  0.90185534  0.83345842     0.04900
H376        H  0.07925932  0.76042711  0.83423830     0.04900
O377        O  0.91003011  0.22636358  0.67274905    -0.87700
C378        C  0.80326011  0.19404301  0.70505287     0.88300
Mg379      Mg  0.91673768  0.25969548  0.64935041     1.58100
O380        O  0.79497137  0.09888206  0.68290658    -0.87500
O381        O  0.90555211  0.16256482  0.68214443    -0.74800
C382        C  0.70817987  0.14424332  0.61451550     0.93400
O383        O  0.85523348  0.28196569  0.67893071    -0.74600
O384        O  0.74361063  0.18485428  0.61543275    -0.82100
Mg385      Mg  0.89772480  0.25812022  0.69410353     1.58000
C386        C  0.66634080  0.00358178  0.66196250     0.93300
O387        O  0.94181521  0.24298339  0.71211855    -0.80400
H388        H  0.82028754  0.05781192  0.67636876    -0.05700
C389        C  0.72030994  0.15578017  0.66384535     0.88200
O390        O  0.88236820  0.18951843  0.63574495    -0.74900
O391        O  0.83719546  0.19250366  0.69957215    -0.87600
O392        O  0.68517832  0.02067711  0.67585245    -0.80400
C393        C  0.75105527  0.06668469  0.72385180     0.93400
C394        C  0.93825783  0.21155463  0.72198180     0.93200
Mg395      Mg  0.74530491  0.09598390  0.64283135     1.58000
O396        O  0.70064800  0.11257954  0.62500834    -0.80400
O397        O  0.78791473  0.07145134  0.65783684    -0.74600
O398        O  0.79384890  0.09802513  0.72260847    -0.80500
O399        O  0.96193386  0.32737510  0.68848194    -0.82200
O400        O  0.85198930  0.25745138  0.61457575    -0.80500
C401        C  0.80151323  0.07505678  0.67268725     0.87700
O402        O  0.80712244  0.16114952  0.63732211    -0.87600
O403        O  0.73430641  0.12764974  0.66435564    -0.87700
O404        O  0.73961121  0.19157432  0.65470184    -0.74800
Mg405      Mg  0.84761078  0.13332348  0.70161860     1.58000
O406        O  0.72238838  0.05702804  0.71203169    -0.82200
H407        H  0.95362177  0.20480512  0.66542600    -0.05900
O408        O  0.85031982  0.25533263  0.65386952    -0.87400
H409        H  0.82423591  0.29600113  0.66004389    -0.05700
H410        H  0.83496357  0.12919180  0.62475150    -0.05900
C411        C  0.84299177  0.27887828  0.66395319     0.87700
C412        C  0.92468790  0.19875977  0.67322012     0.88200
C413        C  0.84090855  0.15884059  0.63213128     0.88300
H414        H  0.69160357  0.15036008  0.67165074    -0.05900
O415        O  0.76186814  0.16296284  0.70154326    -0.74900
Mg416      Mg  0.79810197  0.22101054  0.63526045     1.58000
H417        H  0.80897709  0.22329049  0.71261393    -0.05900
C418        C  0.97818274  0.34967047  0.67511645     0.93300
O419        O  0.92451959  0.29460542  0.62432602    -0.82100
C420        C  0.89534042  0.28617629  0.61277504     0.93300
O421        O  0.90462328  0.16975138  0.72111947    -0.82100
Mg422      Mg  0.72839447  0.09329667  0.68759826     1.58200
O423        O  0.96094259  0.33214956  0.66107253    -0.80400
O424        O  0.68043900  0.02683400  0.64865986    -0.82100
O425        O  0.74430046  0.62753294  0.66090291    -0.87700
C426        C  0.85043692  0.70850185  0.62945652     0.88300
Mg427      Mg  0.73586582  0.65002270  0.68472826     1.58100
O428        O  0.86083219  0.61986720  0.64909383    -0.87500
O429        O  0.75049502  0.57062692  0.64986802    -0.74800
C430        C  0.94433560  0.74206843  0.71936349     0.93400
O431        O  0.79716658  0.73899004  0.65678480    -0.74600
O432        O  0.90848977  0.74666577  0.71961261    -0.82100
Mg433      Mg  0.75566179  0.67415538  0.64069185     1.58000
C434        C  0.98839841  0.65221031  0.66974567     0.93300
O435        O  0.71192284  0.61509767  0.62274698    -0.80400
H436        H  0.83631183  0.55258591  0.65396943    -0.05700
C437        C  0.93221319  0.74844896  0.67081577     0.88200
O438        O  0.77071541  0.61355590  0.69724508    -0.74900
O439        O  0.81718859  0.67189252  0.63457389    -0.87600
O440        O  0.97002839  0.65297800  0.65606778    -0.80400
C441        C  0.90606006  0.64063858  0.60810293     0.93400
C442        C  0.71737616  0.59105275  0.61165813     0.93200
Mg443      Mg  0.90785397  0.66064290  0.68968855     1.58000
O444        O  0.95120755  0.71960688  0.70799708    -0.80400
O445        O  0.86669312  0.59549747  0.67353150    -0.74600
O446        O  0.86317894  0.62832237  0.60966224    -0.80500
O447        O  0.69078441  0.67786468  0.64676368    -0.82200
O448        O  0.79827630  0.70853407  0.72059762    -0.80500
C449        C  0.85428359  0.58794396  0.65850754     0.87700
O450        O  0.84558880  0.66209066  0.69592668    -0.87600
O451        O  0.91869323  0.70653560  0.66927422    -0.87700
O452        O  0.91244660  0.76301165  0.68064602    -0.74800
Mg453      Mg  0.80884389  0.60397401  0.63058325     1.58000
O454        O  0.93456754  0.65715532  0.62009798    -0.82200
H455        H  0.70184377  0.56097260  0.66698528    -0.05900
O456        O  0.80164942  0.71408135  0.68129645    -0.87400
H457        H  0.82716833  0.78155568  0.67644538    -0.05700
H458        H  0.81899790  0.60101544  0.70752764    -0.05900
C459        C  0.80888877  0.74620009  0.67186611     0.87700
C460        C  0.73061466  0.58554100  0.65947912     0.88200
C461        C  0.81236238  0.62498595  0.70070205     0.88300
H462        H  0.96092992  0.77327010  0.66335156    -0.05900
O463        O  0.89215058  0.71949863  0.63263224    -0.74900
Mg464      Mg  0.85353673  0.73012403  0.69989927     1.58000
H465        H  0.84382778  0.73228698  0.62251997    -0.05900
C466        C  0.67421105  0.68164435  0.66044023     0.93300
O467        O  0.72657297  0.67284185  0.71002411    -0.82100
C468        C  0.75452800  0.69265943  0.72195211     0.93300
O469        O  0.75299569  0.58614142  0.61119328    -0.82100
Mg470      Mg  0.92651920  0.68265654  0.64536730     1.58200
O471        O  0.69077602  0.67840356  0.67421139    -0.80400
O472        O  0.97364472  0.65846229  0.68345785    -0.82100
C473        C  0.61619928  0.82800008  0.84299218     0.02900
C474        C  0.61578479  0.78528031  0.84265997     0.02900
C475        C  0.63091680  0.77248872  0.82848609    -0.17600
C476        C  0.64691688  0.80177407  0.81464263     0.02900
C477        C  0.64678206  0.84431508  0.81489387     0.02900
C478        C  0.63132759  0.85689792  0.82908824    -0.17600
H479        H  0.63080419  0.88930212  0.82928052     0.04900
H480        H  0.63116430  0.73993809  0.82835869     0.04900
C481        C  0.00343383  0.48217120  0.48287698     0.02900
C482        C  0.00633753  0.52614145  0.48292874     0.02900
C483        C  0.99586847  0.54227406  0.49741090    -0.17600
C484        C  0.98212715  0.51536298  0.51182093     0.02900
C485        C  0.97749845  0.47066898  0.51159015     0.02900
C486        C  0.98832159  0.45460689  0.49714588    -0.17600
H487        H  0.98589155  0.42079249  0.49712416     0.04900
H488        H  0.99874874  0.57628796  0.49749666     0.04900
C489        C  0.50882606  0.52650604  0.48553791     0.02900
C490        C  0.46938234  0.48108884  0.48514910     0.02900
C491        C  0.46048455  0.45084963  0.49844434    -0.17600
C492        C  0.48984936  0.46541380  0.51221453     0.02900
C493        C  0.52961632  0.51021101  0.51242129     0.02900
C494        C  0.53856186  0.54058986  0.49922913    -0.17600
H495        H  0.56938124  0.57487605  0.49945516     0.04900
H496        H  0.43001331  0.41632358  0.49824761     0.04900
C497        C  0.46741114  0.97019553  0.48691704     0.02900
C498        C  0.51639184  0.99012680  0.48819060     0.02900
C499        C  0.53932972  0.01292639  0.50279120    -0.17600
C500        C  0.51437891  0.01563903  0.51632914     0.02900
C501        C  0.46567972  0.99648886  0.51495644     0.02900
C502        C  0.44267792  0.97349965  0.50043348    -0.17600
H503        H  0.40547386  0.95975658  0.49943322     0.04900
H504        H  0.57652416  0.02671619  0.50388572     0.04900
C505        C  0.99420004  0.03755309  0.99975746     0.02900
C506        C  0.03912410  0.04358924  0.00192686     0.02900
C507        C  0.04440067  0.00430807  0.00428655     0.02900
C508        C  0.00484102  0.95909509  0.00453673     0.02900
C509        C  0.95992937  0.95310676  0.00234811     0.02900
C510        C  0.95460687  0.99241934  0.00020078     0.02900
C511        C  0.71411826  0.33594676  0.33593734     0.02900
C512        C  0.71617200  0.37931610  0.33468625     0.02900
C513        C  0.67483908  0.38144262  0.33366448     0.02900
C514        C  0.63123595  0.34005388  0.33440535     0.02900
C515        C  0.62922763  0.29677586  0.33617330     0.02900
C516        C  0.67062233  0.29467006  0.33669798     0.02900
C517        C  0.28989079  0.66824367  0.67140434     0.02900
C518        C  0.33357878  0.70964512  0.67104527     0.02900
C519        C  0.37474605  0.70732582  0.66939488     0.02900
C520        C  0.37228557  0.66375569  0.66787372     0.02900
C521        C  0.32851403  0.62236924  0.66785497     0.02900
C522        C  0.28738277  0.62466643  0.66967505     0.02900
C523        C  0.09985734  0.64819290  0.66135119     0.16600
C524        C  0.13902424  0.65025733  0.65399709    -0.32500
C525        C  0.17640765  0.65880912  0.66425055     0.21000
C526        C  0.17466599  0.66426993  0.68114619     0.03200
C527        C  0.13535157  0.66206209  0.68852783    -0.22200
C528        C  0.09813092  0.65416280  0.67821582     0.12300
S529        S  0.05236078  0.64110774  0.65082175    -0.05900
C530        C  0.02998094  0.64705846  0.66926214    -0.09300
C531        C  0.05788679  0.65326135  0.68286633    -0.25900
S532        S  0.22319945  0.67285512  0.69145999    -0.03100
C533        C  0.24624855  0.66992006  0.67275840    -0.16600
C534        C  0.21748147  0.66220827  0.65936260    -0.14600
H535        H  0.14055848  0.64604362  0.64080214     0.20800
H536        H  0.13403005  0.66676134  0.70169895     0.16800
H537        H  0.05022037  0.65904155  0.69534564     0.19400
H538        H  0.22572695  0.65788320  0.64679024     0.12700
C539        C  0.56371226  0.68962035  0.65410362     0.16600
C540        C  0.52578392  0.69233542  0.64781571    -0.32500
C541        C  0.48683609  0.67789651  0.65807320     0.21000
C542        C  0.48570518  0.66160166  0.67388872     0.03200
C543        C  0.52385590  0.65963430  0.68025171    -0.22200
C544        C  0.56275375  0.67408686  0.67002198     0.12300
S545        S  0.61290830  0.70206083  0.64329410    -0.05900
C546        C  0.63244897  0.68651297  0.66048518    -0.09300
C547        C  0.60231115  0.67293421  0.67382283    -0.25900
S548        S  0.43538597  0.64574610  0.68441623    -0.03100
C549        C  0.41588651  0.66182801  0.66743106    -0.16600
C550        C  0.44670360  0.67807708  0.65428888    -0.14600
H551        H  0.52634352  0.70456557  0.63540701     0.20800
H552        H  0.52309931  0.64697506  0.69260336     0.16800
H553        H  0.60795488  0.66048476  0.68543230     0.19400
H554        H  0.44042541  0.69041252  0.64276936     0.12700
C555        C  0.71476144  0.77807600  0.78130528     0.16600
C556        C  0.74887610  0.77832871  0.77101736    -0.32500
C557        C  0.73462717  0.74208145  0.75949077     0.21000
C558        C  0.68842771  0.70719921  0.75821076     0.03200
C559        C  0.65449587  0.70626320  0.76879700    -0.22200
C560        C  0.66877255  0.74248340  0.78034636     0.12300
S561        S  0.72475552  0.81974045  0.79570824    -0.05900
C562        C  0.66652153  0.78851906  0.80067397    -0.09300
C563        C  0.64097541  0.74802471  0.79158940    -0.25900
S564        S  0.67747717  0.66919473  0.74230131    -0.03100
C565        C  0.73587817  0.70030898  0.73741777    -0.16600
C566        C  0.76216180  0.73780528  0.74779294    -0.14600
H567        H  0.78477970  0.80605603  0.77174194     0.20800
H568        H  0.61840197  0.67910888  0.76782370     0.16800
H569        H  0.60412242  0.72397291  0.79318886     0.19400
H570        H  0.79888741  0.76239989  0.74619764     0.12700
C571        C  0.62523741  0.56096637  0.57853045     0.16600
C572        C  0.59099077  0.56071671  0.56845612    -0.32500
C573        C  0.58816516  0.54549790  0.55219341     0.21000
C574        C  0.61741636  0.53018670  0.54626611     0.03200
C575        C  0.65173840  0.53037982  0.55637670    -0.22200
C576        C  0.65514186  0.54646800  0.57261122     0.12300
S577        S  0.63621502  0.58153687  0.59818869    -0.05900
C578        C  0.68257136  0.57186940  0.59840008    -0.09300
C579        C  0.68807095  0.55230840  0.58404532    -0.25900
S580        S  0.60682600  0.51118625  0.52632399    -0.03100
C581        C  0.56302714  0.52454873  0.52606491    -0.16600
C582        C  0.55719211  0.54287043  0.54057108    -0.14600
H583        H  0.56807342  0.57258330  0.57301470     0.20800
H584        H  0.67502240  0.51904918  0.55175147     0.16800
H585        H  0.71613656  0.54536664  0.58175415     0.19400
H586        H  0.53044760  0.55182490  0.54267738     0.12700
C587        C  0.92481379  0.60676452  0.56476483     0.16600
C588        C  0.91899202  0.59064138  0.54845632    -0.32500
C589        C  0.94610862  0.57159066  0.54310401     0.21000
C590        C  0.97784453  0.56894513  0.55348903     0.03200
C591        C  0.98447403  0.58609586  0.56968401    -0.22200
C592        C  0.95719210  0.60498930  0.57506683     0.12300
S593        S  0.89162049  0.62622900  0.57410387    -0.05900
C594        C  0.92171981  0.63226867  0.59210162    -0.09300
C595        C  0.95618576  0.62042735  0.59070527    -0.25900
S596        S  0.00602115  0.54292954  0.54484376    -0.03100
C597        C  0.97478189  0.53562522  0.52702814    -0.16600
C598        C  0.94455092  0.55295458  0.52784156    -0.14600
H599        H  0.89349247  0.59168305  0.54043683     0.20800
H600        H  0.00897350  0.58375415  0.57785419     0.16800
H601        H  0.97704909  0.61994880  0.60087243     0.19400
H602        H  0.92240211  0.55162248  0.51781887     0.12700
C603        C  0.49362076  0.81746762  0.67632143     0.16600
C604        C  0.53466630  0.85495209  0.68268621    -0.32500
C605        C  0.56476426  0.88934828  0.67158459     0.21000
C606        C  0.55458875  0.88638331  0.65489949     0.03200
C607        C  0.51378121  0.84880762  0.64853669    -0.22200
C608        C  0.48361368  0.81465445  0.65961758     0.12300
S609        S  0.45179118  0.77282431  0.68773598    -0.05900
C610        C  0.42067428  0.75058295  0.66979827    -0.09300
C611        C  0.44184871  0.77619599  0.65579840    -0.25900
S612        S  0.59445558  0.93240900  0.64354411    -0.03100
C613        C  0.62533330  0.95625409  0.66144215    -0.16600
C614        C  0.60543534  0.92934263  0.67541575    -0.14600
H615        H  0.54247021  0.85753683  0.69573428     0.20800
H616        H  0.50553940  0.84664755  0.63553425     0.16800
H617        H  0.42718486  0.76720225  0.64351280     0.19400
H618        H  0.61921714  0.93918361  0.68779126     0.12700
C619        C  0.09349221  0.46254633  0.68290244     0.16600
C620        C  0.13448349  0.49901870  0.68968322    -0.32500
C621        C  0.17116756  0.52614874  0.67885332     0.21000
C622        C  0.16726762  0.51747175  0.66202191     0.03200
C623        C  0.12610962  0.48142839  0.65523407    -0.22200
C624        C  0.08944810  0.45433225  0.66605229     0.12300
S625        S  0.04622986  0.42341111  0.69400827    -0.05900
C626        C  0.02073454  0.39573558  0.67572698    -0.09300
C627        C  0.04760851  0.41648894  0.66185041    -0.25900
S628        S  0.21575089  0.55409577  0.65096084    -0.03100
C629        C  0.24128104  0.58164375  0.66918568    -0.16600
C630        C  0.21369878  0.56308690  0.68303856    -0.14600
H631        H  0.13789326  0.50553898  0.70284022     0.20800
H632        H  0.12297040  0.47446035  0.64210646     0.16800
H633        H  0.03816586  0.40303102  0.64941339     0.19400
H634        H  0.22405764  0.57651562  0.69543542     0.12700
C635        C  0.72944319  0.00237976  0.76516249     0.16600
C636        C  0.73325271  0.98686435  0.78084890    -0.32500
C637        C  0.69949472  0.94151271  0.78543602     0.21000
C638        C  0.66363783  0.91276699  0.77484741     0.03200
C639        C  0.65936459  0.92858877  0.75928058    -0.22200
C640        C  0.69300214  0.97402552  0.75472448     0.12300
S641        S  0.76855986  0.05500079  0.75685340    -0.05900
C642        C  0.73527310  0.03894369  0.73915140    -0.09300
C643        C  0.69581297  0.99503879  0.73987402    -0.25900
S644        S  0.62695107  0.85849556  0.78254264    -0.03100
C645        C  0.65990659  0.87490262  0.80028407    -0.16600
C646        C  0.69723308  0.92009595  0.80014277    -0.14600
H647        H  0.76165330  0.00893574  0.78902669     0.20800
H648        H  0.63136270  0.90625728  0.75099981     0.16800
H649        H  0.67170001  0.97843673  0.72976741     0.19400
H650        H  0.72130444  0.93631155  0.81027715     0.12700
C651        C  0.64445164  0.12449410  0.57311759     0.16600
C652        C  0.63322336  0.12508553  0.55644822    -0.32500
C653        C  0.59380780  0.08549992  0.55012151     0.21000
C654        C  0.56629626  0.04759845  0.56008468     0.03200
C655        C  0.57733099  0.04715997  0.57673036    -0.22200
C656        C  0.61725100  0.08617401  0.58294537     0.12300
S657        S  0.69273180  0.16730710  0.58283024    -0.05900
C658        C  0.67671779  0.13271170  0.60019892    -0.09300
C659        C  0.63550674  0.09066795  0.59846922    -0.25900
S660        S  0.52072827  0.00249459  0.55014559    -0.03100
C661        C  0.53875566  0.03466389  0.53225528    -0.16600
C662        C  0.57833472  0.07814859  0.53405905    -0.14600
H663        H  0.65498391  0.15454254  0.54864839     0.20800
H664        H  0.55638237  0.01711446  0.58439679     0.16800
H665        H  0.62071592  0.06392556  0.60783359     0.19400
H666        H  0.59488097  0.10286660  0.52414723     0.12700
C667        C  0.91866330  0.39007753  0.54859193     0.16600
C668        C  0.88791446  0.36082519  0.56076356    -0.32500
C669        C  0.90629699  0.34605320  0.57343008     0.21000
C670        C  0.95327973  0.36018386  0.57408213     0.03200
C671        C  0.98391654  0.38891124  0.56177704    -0.22200
C672        C  0.96546612  0.40327370  0.54901172     0.12300
S673        S  0.90354114  0.41292959  0.53248267    -0.05900
C674        C  0.96072674  0.43997463  0.52615469    -0.09300
C675        C  0.98970395  0.43152882  0.53602480    -0.25900
S676        S  0.96903134  0.34040793  0.59096288    -0.03100
C677        C  0.91151870  0.31193650  0.59705946    -0.16600
C678        C  0.88211952  0.31802003  0.58647087    -0.14600
H679        H  0.85135385  0.35034647  0.56045082     0.20800
H680        H  0.02060192  0.39992282  0.56221000     0.16800
H681        H  0.02668173  0.44616758  0.53397854     0.19400
H682        H  0.84516940  0.30374361  0.58846140     0.12700
C683        C  0.03981138  0.79958645  0.78595034     0.16600
C684        C  0.00408506  0.79677219  0.77590095    -0.32500
C685        C  0.00264684  0.78296330  0.75942235     0.21000
C686        C  0.03539498  0.77260603  0.75325033     0.03200
C687        C  0.07106307  0.77548321  0.76325953    -0.22200
C688        C  0.07232531  0.78900005  0.77970540     0.12300
S689        S  0.04808763  0.81595820  0.80624662    -0.05900
C690        C  0.09587390  0.80864894  0.80616384    -0.09300
C691        C  0.10431093  0.79372930  0.79129111    -0.25900
S692        S  0.02656388  0.75432832  0.73325514    -0.03100
C693        C  0.97778869  0.76011667  0.73313553    -0.16600
C694        C  0.96958193  0.77617043  0.74787457    -0.14600
H695        H  0.97839875  0.80461992  0.78073274     0.20800
H696        H  0.09640148  0.76707780  0.75848909     0.16800
H697        H  0.13279791  0.78743493  0.78903579     0.19400
H698        H  0.93984217  0.78042909  0.75026377     0.12700
C699        C  0.07370276  0.30968914  0.77811932     0.16600
C700        C  0.04991609  0.31365916  0.76452708    -0.32500
C701        C  0.02357337  0.27382590  0.75481672     0.21000
C702        C  0.02069262  0.23171265  0.75847565     0.03200
C703        C  0.04545424  0.22801227  0.77185453    -0.22200
C704        C  0.07197333  0.26796361  0.78154683     0.12300
S705        S  0.10559158  0.35338670  0.79188723    -0.05900
C706        C  0.11749484  0.31534786  0.80222128    -0.09300
C707        C  0.09747965  0.27116081  0.79529123    -0.25900
S708        S  0.98376092  0.18670162  0.74586702    -0.03100
C709        C  0.97289277  0.22535452  0.73537072    -0.16600
C710        C  0.99683228  0.27052814  0.74146847    -0.14600
H711        H  0.05119126  0.34617103  0.76180829     0.20800
H712        H  0.04341736  0.19526587  0.77477615     0.16800
H713        H  0.10095292  0.24279179  0.80021733     0.19400
H714        H  0.99340019  0.29915139  0.73676916     0.12700
C715        C  0.32550128  0.50859540  0.65634996     0.16600
C716        C  0.32882719  0.47259607  0.64860806    -0.32500
C717        C  0.31764125  0.43285654  0.65793731     0.21000
C718        C  0.30344513  0.42894215  0.67422780     0.03200
C719        C  0.29927693  0.46458748  0.68188705    -0.22200
C720        C  0.31084332  0.50449070  0.67259436     0.12300
S721        S  0.33967984  0.56048914  0.64737467    -0.05900
C722        C  0.32560891  0.57671311  0.66568610    -0.09300
C723        C  0.31058096  0.54348581  0.67800046    -0.25900
S724        S  0.29510932  0.37962717  0.68380091    -0.03100
C725        C  0.31109125  0.36414295  0.66567418    -0.16600
C726        C  0.32153072  0.39551270  0.65289807    -0.14600
H727        H  0.34069947  0.47588689  0.63598081     0.20800
H728        H  0.28865196  0.46185633  0.69465702     0.16800
H729        H  0.30047483  0.54793966  0.69026981     0.19400
H730        H  0.33374008  0.39240565  0.64083254     0.12700
C731        C  0.36398238  0.90411312  0.66116847     0.16600
C732        C  0.36363196  0.86557855  0.65389022    -0.32500
C733        C  0.35207325  0.82697113  0.66394168     0.21000
C734        C  0.34212515  0.82699498  0.68055148     0.03200
C735        C  0.34273506  0.86557438  0.68783166    -0.22200
C736        C  0.35369888  0.90392646  0.67775180     0.12300
S737        S  0.37363034  0.95296347  0.65087825    -0.05900
C738        C  0.36321192  0.97312708  0.66909222    -0.09300
C739        C  0.35363037  0.94356690  0.68239790    -0.25900
S740        S  0.32935733  0.77704048  0.69069439    -0.03100
C741        C  0.33659617  0.75554302  0.67230836    -0.16600
C742        C  0.34872616  0.78584396  0.65911680    -0.14600
H743        H  0.37113623  0.86533760  0.64090161     0.20800
H744        H  0.33434000  0.86543476  0.70074611     0.16800
H745        H  0.34465818  0.94962706  0.69463961     0.19400
H746        H  0.35509820  0.77821087  0.64671327     0.12700
C747        C  0.20049541  0.95281369  0.78656563     0.16600
C748        C  0.20587452  0.99004707  0.77678444    -0.32500
C749        C  0.22320391  0.99351597  0.76070984     0.21000
C750        C  0.23438354  0.96123303  0.75466172     0.03200
C751        C  0.22889379  0.92406683  0.76439945    -0.22200
C752        C  0.21201117  0.92082068  0.78046114     0.12300
S753        S  0.17984921  0.94199571  0.80635150    -0.05900
C754        C  0.18699032  0.89407242  0.80628532    -0.09300
C755        C  0.20473271  0.88729901  0.79177310    -0.25900
S756        S  0.25657470  0.97224547  0.73516491    -0.03100
C757        C  0.25118351  0.02120938  0.73505988    -0.16600
C758        C  0.23254706  0.02798530  0.74945879    -0.14600
H759        H  0.19729718  0.01532690  0.78152348     0.20800
H760        H  0.23788616  0.89904787  0.75971874     0.16800
H761        H  0.21114874  0.85886937  0.78954314     0.19400
H762        H  0.22769898  0.05739827  0.75179485     0.12700
C763        C  0.24255961  0.31622804  0.77775161     0.16600
C764        C  0.26195715  0.32277815  0.76198124    -0.32500
C765        C  0.27830597  0.29310804  0.75700901     0.21000
C766        C  0.27555589  0.25846575  0.76725994     0.03200
C767        C  0.25700547  0.25253348  0.78316944    -0.22200
C768        C  0.24045977  0.28209594  0.78812178     0.12300
S769        S  0.21943301  0.34760784  0.78584124    -0.05900
C770        C  0.20654768  0.31424596  0.80338697    -0.09300
C771        C  0.22020666  0.28109503  0.80294066    -0.25900
S772        S  0.29317885  0.22328048  0.75833470    -0.03100
C773        C  0.30453602  0.25576485  0.74063573    -0.16600
C774        C  0.29559912  0.29219106  0.74179683    -0.14600
H775        H  0.26332458  0.34916115  0.75381656     0.20800
H776        H  0.25449196  0.22533532  0.79117161     0.16800
H777        H  0.21536878  0.25747947  0.81291348     0.19400
H778        H  0.29865151  0.31484328  0.73170810     0.12700
C779        C  0.40104854  0.08167310  0.56699784     0.16600
C780        C  0.42643587  0.08836699  0.55251796    -0.32500
C781        C  0.42366863  0.04912164  0.54500773     0.21000
C782        C  0.39567091  0.00472336  0.55125924     0.03200
C783        C  0.36989389  0.99793829  0.56577683    -0.22200
C784        C  0.37386223  0.03760337  0.57362420     0.12300
S785        S  0.40387115  0.12570064  0.57863334    -0.05900
C786        C  0.36931289  0.08478721  0.59299807    -0.09300
C787        C  0.35535685  0.03914255  0.58861958    -0.25900
S788        S  0.39883671  0.96200995  0.54043351    -0.03100
C789        C  0.43942566  0.00497899  0.52784703    -0.16600
C790        C  0.44884080  0.04945734  0.53163788    -0.14600
H791        H  0.44884245  0.12292621  0.54766521     0.20800
H792        H  0.34913119  0.96360031  0.57103639     0.16800
H793        H  0.33487922  0.00910195  0.59634062     0.19400
H794        H  0.47399884  0.08056243  0.52522719     0.12700
C795        C  0.44331567  0.37770565  0.57997945     0.16600
C796        C  0.44535412  0.41233388  0.56961817    -0.32500
C797        C  0.45933562  0.41302269  0.55326546     0.21000
C798        C  0.47150898  0.38121893  0.54748479     0.03200
C799        C  0.46996657  0.34686093  0.55791968    -0.22200
C800        C  0.45534765  0.34575168  0.57425152     0.12300
S801        S  0.42344294  0.36865969  0.59979056    -0.05900
C802        C  0.43070867  0.32079258  0.60036714    -0.09300
C803        C  0.44864879  0.31324979  0.58596496    -0.25900
S804        S  0.48771131  0.38826789  0.52719131    -0.03100
C805        C  0.47798203  0.43448192  0.52660767    -0.16600
C806        C  0.46272161  0.44349317  0.54130410    -0.14600
H807        H  0.43555298  0.43699210  0.57400183     0.20800
H808        H  0.47894577  0.32166660  0.55344310     0.16800
H809        H  0.45401374  0.28407827  0.58385647     0.19400
H810        H  0.45545241  0.47147697  0.54318038     0.12700
C811        C  0.98161248  0.14307016  0.98830070     0.16600
C812        C  0.98083153  0.18034567  0.98051684    -0.32500
C813        C  0.97280183  0.21042536  0.99038330     0.21000
C814        C  0.96511474  0.20320767  0.00719969     0.03200
C815        C  0.96536801  0.16567189  0.01494400    -0.22200
C816        C  0.97423641  0.13614759  0.00514460     0.12300
S817        S  0.99284370  0.10392099  0.97866789    -0.05900
C818        C  0.98836402  0.07864072  0.99759129    -0.09300
C819        C  0.97799350  0.09910693  0.01054227    -0.25900
S820        S  0.95906243  0.24511109  0.01720314    -0.03100
C821        C  0.96772010  0.27329335  0.99859444    -0.16600
C822        C  0.97399980  0.25045606  0.98533965    -0.14600
H823        H  0.98739200  0.18633492  0.96742087     0.20800
H824        H  0.96018921  0.16047612  0.02812559     0.16800
H825        H  0.97381155  0.08761044  0.02322979     0.19400
H826        H  0.98143165  0.26362618  0.97284836     0.12700
C827        C  0.02153361  0.78666407  0.99479541     0.16600
C828        C  0.01668473  0.82208260  0.98744266    -0.32500
C829        C  0.01611675  0.85562913  0.99777586     0.21000
C830        C  0.02140562  0.85484666  0.01470875     0.03200
C831        C  0.02627056  0.81926216  0.02210517    -0.22200
C832        C  0.02569641  0.78490134  0.01174930     0.12300
S833        S  0.01985463  0.74129799  0.98432577    -0.05900
C834        C  0.02358473  0.71857010  0.00295813    -0.09300
C835        C  0.02690292  0.74576526  0.01653729    -0.25900
S836        S  0.01990188  0.89918783  0.02499433    -0.03100
C837        C  0.01074715  0.91783752  0.00628884    -0.16600
C838        C  0.00967948  0.89145035  0.99290208    -0.14600
H839        H  0.01241613  0.82282901  0.97422830     0.20800
H840        H  0.02938372  0.81788352  0.03535418     0.16800
H841        H  0.02823639  0.73650353  0.02923381     0.19400
H842        H  0.00445386  0.89825879  0.98026415     0.12700
C843        C  0.11518087  0.71103206  0.88218822     0.16600
C844        C  0.11440791  0.67876481  0.89349385    -0.32500
C845        C  0.07794841  0.65953201  0.90501750     0.21000
C846        C  0.04384040  0.67196599  0.90533672     0.03200
C847        C  0.04398456  0.70338467  0.89376735    -0.22200
C848        C  0.08041068  0.72257375  0.88222524     0.12300
S849        S  0.15752652  0.73983886  0.86771458    -0.05900
C850        C  0.12788339  0.76749479  0.86154725    -0.09300
C851        C  0.08722415  0.75453361  0.87026222    -0.25900
S852        S  0.00519767  0.64809117  0.92128089    -0.03100
C853        C  0.03488916  0.62047800  0.92745597    -0.16600
C854        C  0.07252988  0.62942653  0.91749893    -0.14600
H855        H  0.14156379  0.66976592  0.89352880     0.20800
H856        H  0.01748531  0.71327505  0.89399368     0.16800
H857        H  0.06425648  0.76829707  0.86807390     0.19400
H858        H  0.09627654  0.61665889  0.91982372     0.12700
C859        C  0.12853257  0.41598199  0.88030776     0.16600
C860        C  0.12091449  0.44656441  0.89004379    -0.32500
C861        C  0.11068277  0.43574851  0.90681636     0.21000
C862        C  0.10796412  0.39617227  0.91358151     0.03200
C863        C  0.11628842  0.36600446  0.90390953    -0.22200
C864        C  0.12658861  0.37685861  0.88716685     0.12300
S865        S  0.14081816  0.42244897  0.85966527    -0.05900
C866        C  0.14428591  0.37242460  0.86037317    -0.09300
C867        C  0.13560915  0.35176190  0.87579872    -0.25900
S868        S  0.09187492  0.38745957  0.93387038    -0.03100
C869        C  0.08907395  0.43790229  0.93333789    -0.16600
C870        C  0.10047109  0.46014980  0.91814510    -0.14600
H871        H  0.12239263  0.47715101  0.88474575     0.20800
H872        H  0.11421182  0.33509396  0.90915118     0.16800
H873        H  0.13637350  0.32028669  0.87855659     0.19400
H874        H  0.09920353  0.49134404  0.91532257     0.12700
C875        C  0.20840428  0.23330015  0.01575461     0.16600
C876        C  0.17062427  0.19315935  0.02246489    -0.32500
C877        C  0.13937103  0.15908659  0.01145060     0.21000
C878        C  0.14505973  0.16505448  0.99452211     0.03200
C879        C  0.18202467  0.20568614  0.98784052    -0.22200
C880        C  0.21367701  0.23934737  0.99882830     0.12300
S881        S  0.25309914  0.27628881  0.02689573    -0.05900
C882        C  0.27941741  0.30238060  0.00852876    -0.09300
C883        C  0.25392982  0.27913571  0.99462758    -0.25900
S884        S  0.10527898  0.11861718  0.98320931    -0.03100
C885        C  0.08048313  0.09096967  0.00145277    -0.16600
C886        C  0.10197525  0.11662075  0.01550554    -0.14600
H887        H  0.16671647  0.18794324  0.03567315     0.20800
H888        H  0.18687453  0.21012780  0.97462835     0.16800
H889        H  0.26549013  0.28939638  0.98205664     0.19400
H890        H  0.09112965  0.10447561  0.02798299     0.12700
C891        C  0.78850386  0.76840558  0.98498546     0.16600
C892        C  0.82327981  0.81203160  0.97932250    -0.32500
C893        C  0.85710283  0.84176000  0.99068316     0.21000
C894        C  0.85694859  0.82828097  0.00686064     0.03200
C895        C  0.82253977  0.78449824  0.01245840    -0.22200
C896        C  0.78814496  0.75520539  0.00120872     0.12300
S897        S  0.74200826  0.72897778  0.97358827    -0.05900
C898        C  0.72125105  0.69485373  0.99098287    -0.09300
C899        C  0.74982364  0.71298426  0.00469494    -0.25900
S900        S  0.90027551  0.86964328  0.01883762    -0.03100
C901        C  0.91868770  0.90559587  0.00189934    -0.16600
C902        C  0.89248837  0.88625591  0.98777207    -0.14600
H903        H  0.82318941  0.82286121  0.96675076     0.20800
H904        H  0.82184423  0.77422952  0.02516356     0.16800
H905        H  0.74184924  0.69719409  0.01680710     0.19400
H906        H  0.89911944  0.90390126  0.97603001     0.12700
C907        C  0.55562528  0.70131027  0.87869451     0.16600
C908        C  0.52403787  0.66858132  0.88995158    -0.32500
C909        C  0.54126985  0.66561206  0.90544941     0.21000
C910        C  0.58774395  0.69426233  0.90954380     0.03200
C911        C  0.61930334  0.72661175  0.89827660    -0.22200
C912        C  0.60223593  0.72918748  0.88276894     0.12300
S913        S  0.54163887  0.71168168  0.85948433    -0.05900
C914        C  0.59921050  0.75362603  0.85697315    -0.09300
C915        C  0.62755090  0.75875125  0.87025357    -0.25900
S916        S  0.60235003  0.68484205  0.92868528    -0.03100
C917        C  0.54545207  0.64100239  0.93124056    -0.16600
C918        C  0.51668768  0.63490137  0.91789055    -0.14600
H919        H  0.48774140  0.64641352  0.88676618     0.20800
H920        H  0.65563160  0.74862625  0.90143135     0.16800
H921        H  0.66433502  0.78399744  0.87092381     0.19400
H922        H  0.48035643  0.60825496  0.91705319     0.12700
C923        C  0.31103149  0.36406147  0.90758568     0.16600
C924        C  0.27763383  0.33394217  0.89619299    -0.32500
C925        C  0.26440793  0.35405606  0.88366271     0.21000
C926        C  0.28332752  0.40189780  0.88259672     0.03200
C927        C  0.31719814  0.43190934  0.89377407    -0.22200
C928        C  0.33062084  0.41187700  0.90618835     0.12300
S929        S  0.32975190  0.34694313  0.92437875    -0.05900
C930        C  0.36463279  0.40493636  0.92937271    -0.09300
C931        C  0.36181703  0.43544876  0.91847260    -0.25900
S932        S  0.26195327  0.41964838  0.86688045    -0.03100
C933        C  0.22758478  0.36207412  0.86153806    -0.16600
C934        C  0.23255036  0.33091535  0.87142508    -0.14600
H935        H  0.26222984  0.29659800  0.89717574     0.20800
H936        H  0.33205311  0.46921539  0.89294921     0.16800
H937        H  0.37996995  0.47291277  0.91990198     0.19400
H938        H  0.21373799  0.29352839  0.86975242     0.12700
C939        C  0.83745733  0.98621818  0.00684325     0.16600
C940        C  0.79848018  0.98600177  0.01356404    -0.32500
C941        C  0.77061419  0.99483169  0.00291468     0.21000
C942        C  0.78074016  0.00303967  0.98625607     0.03200
C943        C  0.81991151  0.00348596  0.97953116    -0.22200
C944        C  0.84802365  0.99501385  0.99022223     0.12300
S945        S  0.87641343  0.97797393  0.01788266    -0.05900
C946        C  0.90761817  0.98710746  0.99999270    -0.09300
C947        C  0.88837665  0.99548197  0.98619641    -0.25900
S948        S  0.74140197  0.01111619  0.97532352    -0.03100
C949        C  0.71119510  0.00369487  0.99342448    -0.16600
C950        C  0.73104684  0.99560423  0.00712736    -0.14600
H951        H  0.79035305  0.97946675  0.02656369     0.20800
H952        H  0.82815819  0.01022255  0.96654754     0.16800
H953        H  0.90398476  0.00307094  0.97404508     0.19400
H954        H  0.71641484  0.98900696  0.01943461     0.12700
C955        C  0.21498622  0.98508103  0.99623560     0.16600
C956        C  0.17530471  0.98153794  0.98882408    -0.32500
C957        C  0.14906367  0.99590044  0.99804037     0.21000
C958        C  0.16132235  0.01259208  0.01401989     0.03200
C959        C  0.20105614  0.01605152  0.02146192    -0.22200
C960        C  0.22759207  0.00197287  0.01218156     0.12300
S961        S  0.25256256  0.97170105  0.98673045    -0.05900
C962        C  0.28608386  0.98939985  0.00435836    -0.09300
C963        C  0.26829004  0.00419516  0.01697798    -0.25900
S964        S  0.12355410  0.02638389  0.02331359    -0.03100
C965        C  0.09124717  0.00957117  0.00543863    -0.16600
C966        C  0.10913654  0.99451228  0.99300812    -0.14600
H967        H  0.16548356  0.96845868  0.97634995     0.20800
H968        H  0.21092041  0.02924354  0.03391536     0.16800
H969        H  0.28525622  0.01779572  0.02872978     0.19400
H970        H  0.09262355  0.98144599  0.98114908     0.12700
C971        C  0.28515666  0.88238092  0.87986427     0.16600
C972        C  0.32676813  0.89739139  0.88862655    -0.32500
C973        C  0.33091226  0.91798536  0.90415305     0.21000
C974        C  0.29530404  0.92354835  0.91061012     0.03200
C975        C  0.25342018  0.90775886  0.90200106    -0.22200
C976        C  0.24917585  0.88696944  0.88654749     0.12300
S977        S  0.27425530  0.85919238  0.86042705    -0.05900
C978        C  0.22042307  0.85493244  0.86150699    -0.09300
C979        C  0.21169340  0.87073361  0.87613930    -0.25900
S980        S  0.30705870  0.94953602  0.92954619    -0.03100
C981        C  0.36028113  0.95221999  0.92900358    -0.16600
C982        C  0.36823678  0.93413477  0.91470086    -0.14600
H983        H  0.35480194  0.89357907  0.88351103     0.20800
H984        H  0.22546575  0.91176263  0.90708301     0.16800
H985        H  0.18029950  0.87191556  0.87872089     0.19400
H986        H  0.39911221  0.93180948  0.91233975     0.12700
C987        C  0.55718007  0.85607442  0.87833318     0.16600
C988        C  0.52685500  0.86244509  0.88864026    -0.32500
C989        C  0.53923706  0.87261029  0.90531162     0.21000
C990        C  0.57991358  0.87623292  0.91143722     0.03200
C991        C  0.61009924  0.86972553  0.90116300    -0.22200
C992        C  0.59783645  0.85978787  0.88451528     0.12300
S993        S  0.54849638  0.84310059  0.85776976    -0.05900
C994        C  0.59992472  0.84228001  0.85762894    -0.09300
C995        C  0.62276793  0.85244959  0.87264718    -0.25900
S996        S  0.59023825  0.89155766  0.93172796    -0.03100
C997        C  0.53932473  0.89344933  0.93201453    -0.16600
C998        C  0.51550795  0.88202475  0.91712372    -0.14600
H999        H  0.49528345  0.85998077  0.88386305     0.20800
H1000       H  0.64196112  0.87281766  0.90588485     0.16800
H1001       H  0.65549464  0.85371648  0.87480198     0.19400
H1002       H  0.48394335  0.88311178  0.91482017     0.12700
C1003       C  0.90041505  0.64709932  0.11140924     0.16600
C1004       C  0.92326825  0.65006338  0.09650090    -0.32500
C1005       C  0.90815121  0.60881304  0.08740582     0.21000
C1006       C  0.87213080  0.56649777  0.09292511     0.03200
C1007       C  0.84875229  0.56370621  0.10763426    -0.22200
C1008       C  0.86372134  0.60486221  0.11667615     0.12300
S1009       S  0.91358343  0.69277604  0.12447109    -0.05900
C1010       C  0.86841542  0.65452286  0.13687002    -0.09300
C1011       C  0.84520296  0.60897809  0.13121638    -0.25900
S1012       S  0.86152117  0.51989110  0.08085377    -0.03100
C1013       C  0.90586313  0.55776495  0.06810568    -0.16600
C1014       C  0.92712942  0.60410290  0.07301164    -0.14600
H1015       H  0.95189020  0.68290114  0.09227650     0.20800
H1016       H  0.82056613  0.53076640  0.11197553     0.16800
H1017       H  0.81575961  0.58051293  0.13735614     0.19400
H1018       H  0.95658892  0.63251468  0.06684700     0.12700
C1019       C  0.74665388  0.65447485  0.11098684     0.16600
C1020       C  0.73476027  0.66186803  0.09514899    -0.32500
C1021       C  0.69142292  0.62831869  0.08878608     0.21000
C1022       C  0.66122743  0.58935353  0.09786005     0.03200
C1023       C  0.67275705  0.58240597  0.11379851    -0.22200
C1024       C  0.71616376  0.61573943  0.12010494     0.12300
S1025       S  0.79830170  0.68997877  0.12060660    -0.05900
C1026       C  0.77852666  0.65223105  0.13708160    -0.12000
C1027       C  0.73411671  0.61447393  0.13517802    -0.25900
S1028       S  0.61208988  0.55082142  0.08754317    -0.03100
C1029       C  0.63237405  0.58733625  0.07072676    -0.16600
C1030       C  0.67475729  0.62767966  0.07324229    -0.14600
H1031       H  0.75867094  0.69188053  0.08796115     0.20800
H1032       H  0.64938609  0.55176338  0.12081829     0.16800
H1033       H  0.71626076  0.58737817  0.14426466     0.19400
H1034       H  0.69357296  0.65376317  0.06391806     0.12700
C1035       C  0.66563226  0.17858061  0.34499349     0.16600
C1036       C  0.66594186  0.13998107  0.35177405    -0.32500
C1037       C  0.65583925  0.10249878  0.34123417     0.21000
C1038       C  0.64607146  0.10343494  0.32466953     0.03200
C1039       C  0.64506946  0.14171242  0.31794679    -0.22200
C1040       C  0.65506144  0.17911099  0.32848115     0.12300
S1041       S  0.67794870  0.22798819  0.35560165    -0.05900
C1042       C  0.66821173  0.24910216  0.33762009    -0.09300
C1043       C  0.65629457  0.21951759  0.32419922    -0.25900
S1044       S  0.63817097  0.05607348  0.31368721    -0.03100
C1045       C  0.64776012  0.03451773  0.33162981    -0.16600
C1046       C  0.65625417  0.06273976  0.34534629    -0.14600
H1047       H  0.67429935  0.13943725  0.36464470     0.20800
H1048       H  0.63757125  0.14263421  0.30500865     0.16800
H1049       H  0.64888386  0.22728168  0.31199605     0.19400
H1050       H  0.66462663  0.05565520  0.35750799     0.12700
C1051       C  0.69000898  0.50230508  0.32560480     0.16600
C1052       C  0.69624466  0.54411326  0.31898976    -0.32500
C1053       C  0.69779910  0.57753138  0.33006437     0.21000
C1054       C  0.69443641  0.57002435  0.34694410     0.03200
C1055       C  0.68882560  0.52863616  0.35352997    -0.22200
C1056       C  0.68604844  0.49486431  0.34249267     0.12300
S1057       S  0.68573273  0.45657909  0.31438596    -0.05900
C1058       C  0.67773456  0.42725980  0.33267236    -0.09300
C1059       C  0.67885156  0.45182384  0.34660237    -0.25900
S1060       S  0.69366996  0.61286270  0.35831521    -0.03100
C1061       C  0.69654832  0.64093501  0.34016951    -0.16600
C1062       C  0.69951788  0.61855934  0.32608905    -0.14600
H1063       H  0.69850208  0.54980203  0.30580343     0.20800
H1064       H  0.68531462  0.52242436  0.36668696     0.16800
H1065       H  0.67532154  0.43901823  0.35908510     0.19400
H1066       H  0.70008032  0.63023527  0.31359517     0.12700
C1067       C  0.58850278  0.98808249  0.45143913     0.16600
C1068       C  0.61482354  0.99730703  0.43692223    -0.32500
C1069       C  0.61393282  0.95942149  0.42878393     0.21000
C1070       C  0.58897443  0.91470219  0.43509717     0.03200
C1071       C  0.56282642  0.90553057  0.44955855    -0.22200
C1072       C  0.56265779  0.94303452  0.45740017     0.12300
S1073       S  0.58255478  0.02848291  0.46269822    -0.05900
C1074       C  0.54351197  0.98370237  0.47506612    -0.09300
C1075       C  0.53670373  0.94030261  0.47090891    -0.25900
S1076       S  0.59037231  0.87308310  0.42322202    -0.03100
C1077       C  0.62389763  0.91590795  0.40922533    -0.16600
C1078       C  0.63417705  0.96037791  0.41387426    -0.14600
H1079       H  0.63396914  0.03216099  0.43193950     0.20800
H1080       H  0.54230018  0.87043106  0.45420518     0.16800
H1081       H  0.51294738  0.90831948  0.47717832     0.19400
H1082       H  0.65365748  0.99130505  0.40645075     0.12700
C1083       C  0.54504224  0.62014037  0.41885671     0.16600
C1084       C  0.53587442  0.58034742  0.42768701    -0.32500
C1085       C  0.53149803  0.58149851  0.44481581     0.21000
C1086       C  0.53540912  0.62019140  0.45286593     0.03200
C1087       C  0.54399220  0.65990107  0.44399479    -0.22200
C1088       C  0.54875754  0.65889007  0.42682182     0.12300
S1089       S  0.55608965  0.62708862  0.39822576    -0.05900
C1090       C  0.56597841  0.68289854  0.40030162    -0.09300
C1091       C  0.56006322  0.69489095  0.41615101    -0.25900
S1092       S  0.52927296  0.61433418  0.47379161    -0.03100
C1093       C  0.52061157  0.55892497  0.47153789    -0.16600
C1094       C  0.52360528  0.54653472  0.45545963    -0.14600
H1095       H  0.53333886  0.55025328  0.42153343     0.20800
H1096       H  0.54763286  0.69041673  0.45020203     0.16800
H1097       H  0.56680215  0.72907051  0.41984892     0.19400
H1098       H  0.51970622  0.51348777  0.45174893     0.12700
C1099       C  0.75535742  0.68636070  0.22093589     0.16600
C1100       C  0.72849750  0.67734880  0.23529629    -0.32500
C1101       C  0.73252187  0.71576954  0.24406195     0.21000
C1102       C  0.76165895  0.76090919  0.23864708     0.03200
C1103       C  0.78885063  0.76988119  0.22448772    -0.22200
C1104       C  0.78517273  0.73170131  0.21584832     0.12300
S1105       S  0.75514693  0.64494703  0.20829719    -0.05900
C1106       C  0.79636862  0.68947521  0.19639582    -0.09300
C1107       C  0.80902218  0.73370497  0.20184255    -0.25900
S1108       S  0.76202302  0.80290618  0.25078305    -0.03100
C1109       C  0.72307205  0.75953680  0.26359479    -0.16600
C1110       C  0.71033172  0.71471520  0.25850871    -0.14600
H1111       H  0.70560429  0.64208444  0.23944687     0.20800
H1112       H  0.81199890  0.80515492  0.22040474     0.16800
H1113       H  0.83412254  0.76553215  0.19578339     0.19400
H1114       H  0.68702430  0.68330347  0.26517587     0.12700
C1115       C  0.51533500  0.18403248  0.34562518     0.16600
C1116       C  0.47850954  0.14413416  0.35276182    -0.32500
C1117       C  0.44335166  0.11226898  0.34225359     0.21000
C1118       C  0.44450439  0.12004893  0.32542551     0.03200
C1119       C  0.48107061  0.16011569  0.31831596    -0.22200
C1120       C  0.51646823  0.19165363  0.32877902     0.12300
S1121       S  0.56241279  0.22585334  0.35611278    -0.05900
C1122       C  0.58371389  0.25350886  0.33757405    -0.09300
C1123       C  0.55570223  0.23161313  0.32408862    -0.25900
S1124       S  0.39979610  0.07631432  0.31467359    -0.03100
C1125       C  0.37949810  0.04684070  0.33301197    -0.16600
C1126       C  0.40594921  0.07035833  0.34670226    -0.14600
H1127       H  0.47778320  0.13773487  0.36587420     0.20800
H1128       H  0.48238145  0.16597360  0.30514762     0.16800
H1129       H  0.56410155  0.24397160  0.31151881     0.19400
H1130       H  0.39905703  0.05686040  0.35915670     0.12700
C1131       C  0.90690552  0.54389169  0.31998238     0.16600
C1132       C  0.86677273  0.50553422  0.31358506    -0.32500
C1133       C  0.83086780  0.47839418  0.32464943     0.21000
C1134       C  0.83472986  0.48886359  0.34135272     0.03200
C1135       C  0.87519093  0.52667182  0.34778617    -0.22200
C1136       C  0.91105849  0.55385604  0.33671840     0.12300
S1137       S  0.95284865  0.58319624  0.30845362    -0.05900
C1138       C  0.97803418  0.61328471  0.32638960    -0.09300
C1139       C  0.95205893  0.59330226  0.34049805    -0.25900
S1140       S  0.78688788  0.45246578  0.35269389    -0.03100
C1141       C  0.76186811  0.42254375  0.33477580    -0.16600
C1142       C  0.78901730  0.44006489  0.32080373    -0.14600
H1143       H  0.86332993  0.49769478  0.30051662     0.20800
H1144       H  0.87828332  0.53499235  0.36081377     0.16800
H1145       H  0.96158086  0.60811284  0.35276525     0.19400
H1146       H  0.77875124  0.42519891  0.30857546     0.12700
C1147       C  0.08540543  0.67663757  0.43044535     0.16600
C1148       C  0.08882348  0.66455412  0.44672575    -0.32500
C1149       C  0.05585347  0.61968798  0.45204237     0.21000
C1150       C  0.02093936  0.58836815  0.44164748     0.03200
C1151       C  0.01677499  0.60090119  0.42554202    -0.22200
C1152       C  0.04979811  0.64561837  0.42021247     0.12300
S1153       S  0.12464458  0.72740162  0.42106456    -0.05900
C1154       C  0.09248193  0.70661689  0.40321787    -0.09300
C1155       C  0.05321345  0.66295601  0.40466948    -0.25900
S1156       S  0.98575680  0.53490546  0.45010508    -0.03100
C1157       C  0.01814197  0.55498222  0.46790528    -0.16600
C1158       C  0.05405926  0.60085369  0.46723594    -0.14600
H1159       H  0.11667782  0.68855167  0.45473526     0.20800
H1160       H  0.98969564  0.57644726  0.41738017     0.16800
H1161       H  0.02996561  0.64373881  0.39461085     0.19400
H1162       H  0.07777846  0.61915270  0.47728047     0.12700
C1163       C  0.38701631  0.89997425  0.45061787     0.16600
C1164       C  0.35038816  0.86853007  0.44046415    -0.32500
C1165       C  0.35324879  0.87855560  0.42354371     0.21000
C1166       C  0.39110687  0.91784603  0.41699398     0.03200
C1167       C  0.42805102  0.94882268  0.42710370    -0.22200
C1168       C  0.42487087  0.93914448  0.44403641     0.12300
S1169       S  0.38885611  0.89587946  0.47158862    -0.05900
C1170       C  0.44146223  0.94739453  0.47151348    -0.09300
C1171       C  0.45595650  0.96652643  0.45593286    -0.25900
S1172       S  0.38595858  0.92625657  0.39650168    -0.03100
C1173       C  0.33193865  0.87653018  0.39673031    -0.16600
C1174       C  0.31949924  0.85434628  0.41192191    -0.14600
H1175       H  0.32029898  0.83837993  0.44560023     0.20800
H1176       H  0.45728460  0.97997489  0.42207661     0.16800
H1177       H  0.48690410  0.99954598  0.45344984     0.19400
H1178       H  0.28617152  0.82388581  0.41459982     0.12700
C1179       C  0.95964651  0.73979381  0.24742819     0.16600
C1180       C  0.92014249  0.70891362  0.23830152    -0.32500
C1181       C  0.91880978  0.71906977  0.22159569     0.21000
C1182       C  0.95482614  0.75849012  0.21435265     0.03200
C1183       C  0.99384975  0.78984724  0.22356700    -0.22200
C1184       C  0.99547916  0.77943584  0.24021438     0.12300
S1185       S  0.97027519  0.73115554  0.26731945    -0.05900
C1186       C  0.02375967  0.78135369  0.26587584    -0.09300
C1187       C  0.03205417  0.80380045  0.25081602    -0.25900
S1188       S  0.94739661  0.76366235  0.19378684    -0.03100
C1189       C  0.89494141  0.71239685  0.19495172    -0.16600
C1190       C  0.88435030  0.69244152  0.21052262    -0.14600
H1191       H  0.89237724  0.67768587  0.24383468     0.20800
H1192       H  0.02227216  0.82032511  0.21789860     0.16800
H1193       H  0.06432131  0.83463857  0.24744692     0.19400
H1194       H  0.85330028  0.66005155  0.21353639     0.12700
C1195       C  0.92152379  0.33219412  0.10025352     0.16600
C1196       C  0.90180861  0.31692971  0.11591488    -0.32500
C1197       C  0.89169106  0.27237808  0.12090653     0.21000
C1198       C  0.90082098  0.24414409  0.11079509     0.03200
C1199       C  0.92132379  0.25975545  0.09523457    -0.22200
C1200       C  0.93139134  0.30436311  0.09022397     0.12300
S1201       S  0.93311453  0.38366406  0.09144692    -0.05900
C1202       C  0.95167057  0.36778919  0.07401536    -0.09300
C1203       C  0.94923067  0.32484485  0.07524753    -0.25900
S1204       S  0.88501887  0.19083481  0.11907329    -0.03100
C1205       C  0.86630028  0.20706362  0.13634111    -0.16600
C1206       C  0.87224754  0.25140385  0.13563089    -0.14600
H1207       H  0.89395215  0.33852943  0.12376262     0.20800
H1208       H  0.92848217  0.23783976  0.08728115     0.16800
H1209       H  0.95781547  0.30838277  0.06538511     0.19400
H1210       H  0.86305845  0.26746370  0.14545413     0.12700
C1211       C  0.71694890  0.11001040  0.11780087     0.16600
C1212       C  0.68533536  0.11041951  0.10646576    -0.32500
C1213       C  0.66637849  0.07492172  0.09456188     0.21000
C1214       C  0.67814792  0.04035413  0.09398378     0.03200
C1215       C  0.70885143  0.03921584  0.10561974    -0.22200
C1216       C  0.72806332  0.07493055  0.11747538     0.12300
S1217       S  0.74578009  0.15159464  0.13252510    -0.05900
C1218       C  0.77294980  0.12134259  0.13835659    -0.09300
C1219       C  0.75987366  0.08096858  0.12943342    -0.25900
S1220       S  0.65466680  0.00306258  0.07760682    -0.03100
C1221       C  0.62848285  0.03423287  0.07153345    -0.16600
C1222       C  0.63736971  0.07115549  0.08189306    -0.14600
H1223       H  0.67685133  0.13791601  0.10663768     0.20800
H1224       H  0.71837670  0.01247945  0.10516060     0.16800
H1225       H  0.77348972  0.05781340  0.13144581     0.19400
H1226       H  0.62528604  0.09552430  0.07976890     0.12700
C1227       C  0.80580346  0.02367116  0.24442376     0.16600
C1228       C  0.82815754  0.03911700  0.22917240    -0.32500
C1229       C  0.81271119  0.06218188  0.21871859     0.21000
C1230       C  0.77684042  0.06989255  0.22325307     0.03200
C1231       C  0.75518710  0.05536603  0.23867330    -0.22200
C1232       C  0.77049315  0.03207795  0.24910423     0.12300
S1233       S  0.81605137  0.99076040  0.25807383    -0.05900
C1234       C  0.77231407  0.98828884  0.27026201    -0.09300
C1235       C  0.75172111  0.01257699  0.26406669    -0.25900
S1236       S  0.76279285  0.09786058  0.20864610    -0.03100
C1237       C  0.80608960  0.09962982  0.19641946    -0.16600
C1238       C  0.82973596  0.07932588  0.20335593    -0.14600
H1239       H  0.85559558  0.03246898  0.22545196     0.20800
H1240       H  0.72706472  0.06113425  0.24224907     0.16800
H1241       H  0.72232747  0.01311286  0.26963147     0.19400
H1242       H  0.85854056  0.07817592  0.19757873     0.12700
C1243       C  0.46201808  0.32058153  0.09271229     0.16600
C1244       C  0.46837763  0.30796247  0.10856640    -0.32500
C1245       C  0.42839029  0.27704692  0.11743733     0.21000
C1246       C  0.38419637  0.25905634  0.11074674     0.03200
C1247       C  0.37798883  0.27072616  0.09477606    -0.22200
C1248       C  0.41780573  0.30203329  0.08600154     0.12300
S1249       S  0.50528131  0.36152283  0.08065019    -0.05900
C1250       C  0.46313887  0.35387438  0.06654454    -0.09300
C1251       C  0.41830606  0.32039593  0.07089325    -0.25900
S1252       S  0.34000632  0.22278531  0.12350380    -0.03100
C1253       C  0.38145354  0.23152863  0.13794762    -0.16600
C1254       C  0.42702940  0.26109719  0.13309882    -0.14600
H1255       H  0.50275036  0.32258050  0.11391672     0.20800
H1256       H  0.34352706  0.25694265  0.08957397     0.16800
H1257       H  0.38733310  0.31221625  0.06390882     0.19400
H1258       H  0.45737008  0.26929272  0.14046415     0.12700
C1259       C  0.46391331  0.13862165  0.09265538     0.16600
C1260       C  0.46947665  0.15466741  0.10894639    -0.32500
C1261       C  0.42933377  0.14613156  0.11755416     0.21000
C1262       C  0.38569371  0.12315795  0.11022490     0.03200
C1263       C  0.38029103  0.10804213  0.09384104    -0.22200
C1264       C  0.42033048  0.11613832  0.08529333     0.12300
S1265       S  0.50733537  0.14084430  0.08073872    -0.05900
C1266       C  0.46617311  0.11065429  0.06575369    -0.09300
C1267       C  0.42153093  0.10071493  0.06975523    -0.25900
S1268       S  0.34129150  0.11608388  0.12270765    -0.03100
C1269       C  0.38204776  0.14489830  0.13786339    -0.16600
C1270       C  0.42743989  0.15877722  0.13348308    -0.14600
H1271       H  0.50337195  0.17196553  0.11477911     0.20800
H1272       H  0.34626381  0.08990290  0.08811848     0.16800
H1273       H  0.39097681  0.08022681  0.06221588     0.19400
H1274       H  0.45746060  0.17861873  0.14131899     0.12700
C1275       C  0.31125976  0.01187193  0.23674993     0.16600
C1276       C  0.34346598  0.04520609  0.22585520    -0.32500
C1277       C  0.32727848  0.06696545  0.21508513     0.21000
C1278       C  0.28110803  0.05608227  0.21514496     0.03200
C1279       C  0.24873155  0.02208568  0.22580075    -0.22200
C1280       C  0.26490169  0.00028181  0.23655085     0.12300
S1281       S  0.32470959  0.98458899  0.25177765    -0.05900
C1282       C  0.26717813  0.95703580  0.25779375    -0.09300
C1283       C  0.23928720  0.96824290  0.24840652    -0.25900
S1284       S  0.26861146  0.08718410  0.20141607    -0.03100
C1285       C  0.32609310  0.11479622  0.19544052    -0.16600
C1286       C  0.35320913  0.10038869  0.20365886    -0.14600
H1287       H  0.37969917  0.05442850  0.22598783     0.20800
H1288       H  0.21269976  0.01355072  0.22589797     0.16800
H1289       H  0.20284482  0.95590694  0.25081269     0.19400
H1290       H  0.38982549  0.11356300  0.20130722     0.12700
C1291       C  0.51436766  0.33304181  0.32577194     0.16600
C1292       C  0.47361646  0.32818123  0.31871621    -0.32500
C1293       C  0.43799238  0.32277597  0.32941634     0.21000
C1294       C  0.44257868  0.32192779  0.34637970     0.03200
C1295       C  0.48305546  0.32615252  0.35342459    -0.22200
C1296       C  0.51880146  0.33192944  0.34274196     0.12300
S1297       S  0.56164128  0.34007555  0.31494095    -0.05900
C1298       C  0.58742734  0.34136381  0.33347171    -0.09300
C1299       C  0.56072236  0.33663237  0.34723256    -0.25900
S1300       S  0.39675760  0.31813777  0.35726934    -0.03100
C1301       C  0.37117285  0.31808632  0.33878579    -0.16600
C1302       C  0.39686892  0.32008592  0.32497503    -0.14600
H1303       H  0.47007411  0.32918508  0.30547513     0.20800
H1304       H  0.48683281  0.32571826  0.36667501     0.16800
H1305       H  0.57100958  0.33536312  0.35979985     0.19400
H1306       H  0.38711000  0.32189367  0.31237902     0.12700
C1307       C  0.89377093  0.33921452  0.31930815     0.16600
C1308       C  0.84994224  0.32982631  0.31369617    -0.32500
C1309       C  0.81998683  0.33305067  0.32515897     0.21000
C1310       C  0.83301093  0.34496679  0.34148895     0.03200
C1311       C  0.87676804  0.35432753  0.34708441    -0.22200
C1312       C  0.90673516  0.35121421  0.33562633     0.12300
S1313       S  0.93471468  0.33592875  0.30751364    -0.05900
C1314       C  0.96956984  0.35058516  0.32479171    -0.09300
C1315       C  0.95018649  0.35794228  0.33882924    -0.25900
S1316       S  0.79236276  0.34832244  0.35338025    -0.03100
C1317       C  0.75777118  0.33419010  0.33612119    -0.16600
C1318       C  0.77657962  0.32659704  0.32201995    -0.14600
H1319       H  0.83964527  0.32042931  0.30096063     0.20800
H1320       H  0.88705674  0.36372429  0.35982040     0.16800
H1321       H  0.96635083  0.36617887  0.35089737     0.19400
H1322       H  0.76000829  0.31848439  0.31002426     0.12700
C1323       C  0.03412996  0.38417375  0.42470635     0.16600
C1324       C  0.00200337  0.38391309  0.43606678    -0.32500
C1325       C  0.01862576  0.41979010  0.44787833     0.21000
C1326       C  0.06513883  0.45430445  0.44833642     0.03200
C1327       C  0.09739413  0.45381949  0.43729222    -0.22200
C1328       C  0.08080794  0.41803185  0.42551067     0.12300
S1329       S  0.02044848  0.34653285  0.40844351    -0.05900
C1330       C  0.07834214  0.37648870  0.40279669    -0.09300
C1331       C  0.10643065  0.41331212  0.41317516    -0.25900
S1332       S  0.07818338  0.49607873  0.46299383    -0.03100
C1333       C  0.02052443  0.46652174  0.46877838    -0.16600
C1334       C  0.99286038  0.42631382  0.45976780    -0.14600
H1335       H  0.96551765  0.35760376  0.43547258     0.20800
H1336       H  0.13367071  0.48077509  0.43762967     0.16800
H1337       H  0.14322792  0.43701910  0.41125657     0.19400
H1338       H  0.95592396  0.40346779  0.46173252     0.12700
C1339       C  0.34985739  0.46285590  0.42616213     0.16600
C1340       C  0.36768524  0.48482210  0.44135764    -0.32500
C1341       C  0.39287998  0.46948814  0.45073971     0.21000
C1342       C  0.39967647  0.43365158  0.44534385     0.03200
C1343       C  0.38231543  0.41209321  0.43009996    -0.22200
C1344       C  0.35767093  0.42780309  0.42064204     0.12300
S1345       S  0.31631034  0.47448887  0.41324134    -0.05900
C1346       C  0.31356310  0.43216930  0.40017145    -0.09300
C1347       C  0.33754980  0.41058068  0.40565884    -0.25900
S1348       S  0.43172790  0.42052350  0.45837825    -0.03100
C1349       C  0.43722855  0.46472195  0.47098785    -0.16600
C1350       C  0.41431532  0.48743016  0.46552501    -0.14600
H1351       H  0.36213606  0.51250138  0.44567790     0.20800
H1352       H  0.38787942  0.38442010  0.42577865     0.16800
H1353       H  0.33825791  0.38210353  0.39940332     0.19400
H1354       H  0.41501597  0.51667481  0.47172357     0.12700
C1355       C  0.92471661  0.21247878  0.22161686     0.16600
C1356       C  0.93627515  0.22791082  0.23791858    -0.32500
C1357       C  0.97481774  0.22775371  0.24483438     0.21000
C1358       C  0.00062422  0.21279215  0.23594184     0.03200
C1359       C  0.98916142  0.19748426  0.21962307    -0.22200
C1360       C  0.95074174  0.19782001  0.21268486     0.12300
S1361       S  0.87835113  0.20860315  0.21122172    -0.05900
C1362       C  0.89421774  0.18690772  0.19473207    -0.09300
C1363       C  0.93356052  0.18341372  0.19712606    -0.25900
S1364       S  0.04693337  0.21662449  0.24634469    -0.03100
C1365       C  0.03178568  0.23924679  0.26279681    -0.16600
C1366       C  0.99243353  0.24284856  0.26030664    -0.14600
H1367       H  0.91615085  0.23952130  0.24489040     0.20800
H1368       H  0.00936025  0.18599391  0.21263959     0.16800
H1369       H  0.94754384  0.16932775  0.18821765     0.19400
H1370       H  0.97857501  0.25742419  0.26907566     0.12700
C1371       C  0.27175753  0.27325610  0.23281205     0.16600
C1372       C  0.26856346  0.25765173  0.21650685    -0.32500
C1373       C  0.29766360  0.24020825  0.21182346     0.21000
C1374       C  0.32850158  0.23831323  0.22287354     0.03200
C1375       C  0.33236192  0.25479194  0.23905711    -0.22200
C1376       C  0.30340890  0.27236948  0.24372856     0.12300
S1377       S  0.23688368  0.29198189  0.24134689    -0.05900
C1378       C  0.26572991  0.29933927  0.25976679    -0.09300
C1379       C  0.30062204  0.28798828  0.25912563    -0.25900
S1380       S  0.35972945  0.21462246  0.21497777    -0.03100
C1381       C  0.33123239  0.20745914  0.19651990    -0.16600
C1382       C  0.29942522  0.22296949  0.19661308    -0.14600
H1383       H  0.24388756  0.25825621  0.20794599     0.20800
H1384       H  0.35637991  0.25330602  0.24771091     0.16800
H1385       H  0.32101769  0.28853628  0.26962331     0.19400
H1386       H  0.27868353  0.22157023  0.18610381     0.12700
loop_ 
_geom_bond_atom_site_label_1 
_geom_bond_atom_site_label_2 
_geom_bond_distance 
_geom_bond_site_symmetry_2 
_ccdc_geom_bond_type 
O1           Mg3   2.152       .  S
O1           Mg9   2.155       .  S
O1           C36   1.236       .  S
C2           O15   1.236       .  S
C2           O39   1.271       .  A
C2           H41   1.080       .  S
Mg3          O32   2.166       .  S
Mg3          O47   2.303       .  S
Mg3          O43   2.275       .  S
Mg3          O14   2.290       .  S
O4          Mg46   2.145       .  S
O4          Mg29   2.131       .  S
O4           C25   1.234       .  S
O5           C36   1.271       .  A
O5          Mg29   2.303       .  S
C6            O8   1.272       .  A
C6           O20   1.274       .  A
C6         C1346   1.470       .  S
O7           C35   1.270       .  A
O7           Mg9   2.299       .  S
O8          Mg40   2.268       .  S
Mg9          O15   2.156       .  S
Mg9          O23   2.269       .  S
Mg9          O11   2.304       .  S
C10          O48   1.272       .  A
C10          O16   1.275       .  A
C10        C1301   1.475       .  S
O11          C18   1.274       .  A
H12          C25   1.080       .  S
C13          O27   1.236       .  S
C13          O28   1.270       .  A
C13          H38   1.081       .  S
O14          C37   1.268       .  A
O15         Mg29   2.152       .  S
O16         Mg46   2.303       .  S
C17          O30   1.273       .  A
C17          O22   1.274       .  A
C17        C1378   1.475       .  S
C18          O45   1.268       .  A
C18        C1365   1.467       .  S
Mg19         O26   2.146       .  S
Mg19         O27   2.167       .  S
Mg19         O20   2.285       .  S
Mg19         O21   2.290       .  S
Mg19         O48   2.267       .  S
O21          C25   1.268       .  A
O22         Mg29   2.309       .  S
O23          C42   1.272       .  A
O24          C44   1.276       .  A
O24         Mg40   2.308       .  S
O26         Mg40   2.167       .  S
O26          C37   1.234       .  S
O27         Mg46   2.151       .  S
O28         Mg40   2.298       .  S
Mg29         O45   2.234       .  S
O30         Mg46   2.278       .  S
H31          C36   1.081       .  S
O32         Mg40   2.144       .  S
O32          C35   1.236       .  S
H33          C35   1.080       .  S
H34          C37   1.081       .  S
O39         Mg46   2.308       .  S
C42          O47   1.275       .  A
C42        C1314   1.474   1_455  S
O43          C44   1.273       .  A
C44        C1330   1.477       .  S
C49        C1381   1.481       .  S
C49          C50   1.417       .  A
C49          C54   1.406       .  A
C50        C1285   1.475       .  S
C50          C51   1.404       .  A
C51          H56   1.085       .  S
C51          C52   1.397       .  A
C52        C1269   1.469       .  S
C52          C53   1.407       .  A
C53        C1253   1.471       .  S
C53          C54   1.399       .  A
C54          H55   1.085       .  S
C57        C1237   1.479       .  S
C57          C58   1.410       .  A
C57          C62   1.403       .  A
C58        C1362   1.469       .  S
C58          C59   1.399       .  A
C59          H64   1.085       .  S
C59          C60   1.402       .  A
C60        C1205   1.478       .  S
C60          C61   1.415       .  A
C61        C1218   1.475       .  S
C61          C62   1.407       .  A
C62          H63   1.085       .  S
O65         Mg67   2.151       .  S
O65         Mg73   2.156       .  S
O65         C100   1.236       .  S
C66          O79   1.235       .  S
C66         O103   1.270       .  A
C66         H105   1.080       .  S
Mg67         O96   2.163       .  S
Mg67        O111   2.297       .  S
Mg67        O107   2.266       .  S
Mg67         O78   2.291       .  S
O68        Mg110   2.158       .  S
O68         Mg93   2.152       .  S
O68          C89   1.237       .  S
O69         C100   1.271       .  A
O69         Mg93   2.305       .  S
C70          O72   1.274       .  A
C70          O84   1.274       .  A
C70        C1186   1.474       .  S
O71          C99   1.270       .  A
O71         Mg73   2.300       .  S
O72        Mg104   2.278       .  S
Mg73         O79   2.141       .  S
Mg73         O87   2.266       .  S
Mg73         O75   2.322       .  S
C74         O112   1.270       .  A
C74          O80   1.274       .  A
C74        C1138   1.471   1_455  S
O75          C82   1.277       .  A
H76          C89   1.080       .  S
C77          O91   1.234       .  S
C77          O92   1.268       .  A
C77         H102   1.081       .  S
O78         C101   1.269       .  A
O79         Mg93   2.144       .  S
O80        Mg110   2.298       .  S
C81          O94   1.271       .  A
C81          O86   1.275       .  A
C81        C1154   1.470       .  S
C82         O109   1.272       .  A
C82        C1173   1.478       .  S
Mg83         O90   2.138       .  S
Mg83         O91   2.154       .  S
Mg83         O84   2.301       .  S
Mg83         O85   2.300       .  S
Mg83        O112   2.255       .  S
O85          C89   1.271       .  A
O86         Mg93   2.309       .  S
O87         C106   1.272       .  A
O88         C108   1.275       .  A
O88        Mg104   2.303       .  S
O90        Mg104   2.159       .  S
O90         C101   1.236       .  S
O91        Mg110   2.137       .  S
O92        Mg104   2.295       .  S
Mg93        O109   2.268       .  S
O94        Mg110   2.255       .  S
H95         C100   1.081       .  S
O96        Mg104   2.148       .  S
O96          C99   1.236       .  S
H97          C99   1.080       .  S
H98         C101   1.081       .  S
O103       Mg110   2.300       .  S
C106        O111   1.274       .  A
C106       C1125   1.472   1_565  S
O107        C108   1.272       .  A
C108       C1282   1.473       .  S
O113       Mg115   2.145       .  S
O113       Mg121   2.153       .  S
O113        C148   1.237       .  S
C114        O127   1.235       .  S
C114        O151   1.270       .  A
C114        H153   1.080       .  S
Mg115       O144   2.161       .  S
Mg115       O159   2.309       .  S
Mg115       O155   2.271       .  S
Mg115       O126   2.298       .  S
O116       Mg158   2.162       .  S
O116       Mg141   2.135       .  S
O116        C137   1.234       .  S
O117        C148   1.272       .  A
O117       Mg141   2.305       .  S
C118        O120   1.271       .  A
C118        O132   1.275       .  A
C118       C1234   1.473       .  S
O119        C147   1.268       .  A
O119       Mg121   2.291       .  S
O120       Mg152   2.259       .  S
Mg121       O127   2.151       .  S
Mg121       O135   2.265       .  S
Mg121       O123   2.301       .  S
C122        O160   1.272       .  A
C122        O128   1.276       .  A
C122       C1045   1.472   1_565  S
O123        C130   1.274       .  A
H124        C137   1.081       .  S
C125        O139   1.235       .  S
C125        O140   1.269       .  A
C125        H150   1.081       .  S
O126        C149   1.270       .  A
O127       Mg141   2.147       .  S
O128       Mg158   2.303       .  S
C129        O142   1.274       .  A
C129        O134   1.274       .  A
C129       C1077   1.475       .  S
C130        O157   1.270       .  A
C130       C1090   1.466       .  S
Mg131       O138   2.150       .  S
Mg131       O139   2.169       .  S
Mg131       O132   2.301       .  S
Mg131       O133   2.290       .  S
Mg131       O160   2.263       .  S
O133        C137   1.268       .  A
O134       Mg141   2.291       .  S
O135        C154   1.273       .  A
O136        C156   1.274       .  A
O136       Mg152   2.288       .  S
O138       Mg152   2.165       .  S
O138        C149   1.236       .  S
O139       Mg158   2.143       .  S
O140       Mg152   2.290       .  S
Mg141       O157   2.253       .  S
O142       Mg158   2.283       .  S
H143        C148   1.081       .  S
O144       Mg152   2.134       .  S
O144        C147   1.235       .  S
H145        C147   1.080       .  S
H146        C149   1.080       .  S
O151       Mg158   2.300       .  S
C154        O159   1.275       .  A
C154       C1061   1.475       .  S
O155        C156   1.272       .  A
C156       C1109   1.471       .  S
C161       C1106   1.472       .  S
C161        C162   1.415       .  A
C161        C166   1.400       .  A
C162       C1189   1.483       .  S
C162        C163   1.409       .  A
C163        H168   1.084       .  S
C163        C164   1.405       .  A
C164       C1010   1.479       .  S
C164        C165   1.411       .  A
C165       C1026   1.477       .  S
C165        C166   1.400       .  A
C166        H167   1.084       .  S
O169       Mg171   2.154   1_554  S
O169       Mg177   2.159       .  S
O169        C204   1.236       .  S
C170        O183   1.235   1_565  S
C170        O207   1.268       .  A
C170        H209   1.081       .  S
Mg171       O200   2.147   1_545  S
Mg171       O215   2.284   1_545  S
Mg171       O211   2.265   1_545  S
Mg171       O182   2.302       .  S
O172       Mg214   2.164   1_545  S
O172       Mg197   2.127       .  S
O172        C193   1.235       .  S
O173        C204   1.271       .  A
O173       Mg197   2.304       .  S
C174        O176   1.271       .  A
C174        O188   1.274       .  A
C174        C997   1.471       .  S
O175        C203   1.271   1_554  A
O175       Mg177   2.305   1_565  S
O176       Mg208   2.260       .  S
Mg177       O183   2.151       .  S
Mg177       O191   2.280       .  S
Mg177       O179   2.302       .  S
C178        O216   1.272   1_545  A
C178        O184   1.275   1_556  A
C178        C949   1.473       .  S
O179        C186   1.275       .  A
H180        C193   1.081       .  S
C181        O195   1.235       .  S
C181        O196   1.270       .  A
C181        H206   1.080   1_556  S
O182        C205   1.270       .  A
O183       Mg197   2.161       .  S
O184       Mg214   2.300   1_545  S
C185        O198   1.274       .  A
C185        O190   1.276       .  A
C185       C1221   1.478       .  S
C186        O213   1.270       .  A
C186       C1266   1.469       .  S
Mg187       O194   2.153       .  S
Mg187       O195   2.163       .  S
Mg187       O188   2.300       .  S
Mg187       O189   2.287   1_565  S
Mg187       O216   2.268       .  S
O189        C193   1.268   1_556  A
O190       Mg197   2.310       .  S
O191        C210   1.273   1_545  A
O192        C212   1.275       .  A
O192       Mg208   2.315       .  S
O194       Mg208   2.154       .  S
O194        C205   1.235   1_565  S
O195       Mg214   2.149   1_556  S
O196       Mg208   2.299       .  S
Mg197       O213   2.244       .  S
O198       Mg214   2.283   1_545  S
H199        C204   1.081   1_556  S
O200       Mg208   2.147       .  S
O200        C203   1.236       .  S
H201        C203   1.079       .  S
H202        C205   1.081       .  S
O207       Mg214   2.294       .  S
C210        O215   1.272   1_554  A
C210        C962   1.472       .  S
O211        C212   1.271       .  A
C212        C981   1.477       .  S
O217       Mg219   2.150   1_556  S
O217       Mg225   2.159       .  S
O217        C252   1.236       .  S
C218        O231   1.236       .  S
C218        O255   1.271       .  A
C218        H257   1.081       .  S
Mg219       O248   2.149       .  S
Mg219       O263   2.306       .  S
Mg219       O259   2.288       .  S
Mg219       O230   2.299       .  S
O220       Mg262   2.165       .  S
O220       Mg245   2.151       .  S
O220        C241   1.235       .  S
O221        C252   1.270       .  A
O221       Mg245   2.300       .  S
C222        O224   1.269       .  A
C222        O236   1.275       .  A
C222       C1250   1.470       .  S
O223        C251   1.268   1_556  A
O223       Mg225   2.291       .  S
O224       Mg256   2.247       .  S
Mg225       O231   2.153       .  S
Mg225       O239   2.273       .  S
Mg225       O227   2.295       .  S
C226        O264   1.273       .  A
C226        O232   1.277   1_554  A
C226        C882   1.478       .  S
O227        C234   1.274       .  A
H228        C241   1.080       .  S
C229        O243   1.237       .  S
C229        O244   1.270       .  A
C229        H254   1.081   1_554  S
O230        C253   1.270       .  A
O231       Mg245   2.158       .  S
O232       Mg262   2.315       .  S
C233        O246   1.271       .  A
C233        O238   1.274       .  A
C233        C930   1.470       .  S
C234        O261   1.273       .  A
C234        C917   1.477       .  S
Mg235       O242   2.143       .  S
Mg235       O243   2.159       .  S
Mg235       O236   2.304       .  S
Mg235       O237   2.298       .  S
Mg235       O264   2.273       .  S
O237        C241   1.270   1_554  A
O238       Mg245   2.290       .  S
O239        C258   1.273       .  A
O240        C260   1.273       .  A
O240       Mg256   2.288       .  S
O242       Mg256   2.155       .  S
O242        C253   1.236       .  S
O243       Mg262   2.137   1_554  S
O244       Mg256   2.293       .  S
Mg245       O261   2.285       .  S
O246       Mg262   2.265       .  S
H247        C252   1.081   1_554  S
O248       Mg256   2.130       .  S
O248        C251   1.235       .  S
H249        C251   1.080       .  S
H250        C253   1.081       .  S
O255       Mg262   2.301       .  S
C258        O263   1.276   1_556  A
C258        C898   1.475       .  S
O259        C260   1.274       .  A
C260       C1029   1.474       .  S
O265       Mg267   2.161   1_556  S
O265       Mg273   2.157   1_455  S
O265        C300   1.235       .  S
C266        O279   1.236       .  S
C266        O303   1.269       .  A
C266        H305   1.081       .  S
Mg267       O296   2.153   1_455  S
Mg267       O311   2.297   1_455  S
Mg267       O307   2.275   1_455  S
Mg267       O278   2.300       .  S
O268       Mg310   2.168   1_455  S
O268       Mg293   2.147       .  S
O268        C289   1.235       .  S
O269        C300   1.270       .  A
O269       Mg293   2.305       .  S
C270        O272   1.275       .  A
C270        O284   1.275       .  A
C270       C1013   1.475       .  S
O271        C299   1.272   1_556  A
O271       Mg273   2.308       .  S
O272       Mg304   2.282       .  S
Mg273       O279   2.153       .  S
Mg273       O287   2.280       .  S
Mg273       O275   2.327   1_655  S
C274        O312   1.274       .  A
C274        O280   1.275   1_554  A
C274        C834   1.479       .  S
O275        C282   1.278       .  A
H276        C289   1.080       .  S
C277        O291   1.235       .  S
C277        O292   1.269       .  A
C277        H302   1.081   1_554  S
O278        C301   1.270       .  A
O279       Mg293   2.160   1_655  S
O280       Mg310   2.300   1_455  S
C281        O294   1.273       .  A
C281        O286   1.276       .  A
C281        C853   1.477       .  S
C282        O309   1.273       .  A
C282        C869   1.479       .  S
Mg283       O290   2.156       .  S
Mg283       O291   2.167   1_455  S
Mg283       O284   2.298   1_455  S
Mg283       O285   2.294       .  S
Mg283       O312   2.288       .  S
O285        C289   1.269   1_554  A
O286       Mg293   2.308       .  S
O287        C306   1.273       .  A
O288        C308   1.278       .  A
O288       Mg304   2.331       .  S
O290       Mg304   2.167   1_455  S
O290        C301   1.235       .  S
O291       Mg310   2.148   1_554  S
O292       Mg304   2.293       .  S
Mg293       O309   2.271       .  S
O294       Mg310   2.277   1_455  S
H295        C300   1.080   1_554  S
O296       Mg304   2.159       .  S
O296        C299   1.237       .  S
H297        C299   1.080       .  S
H298        C301   1.081       .  S
O303       Mg310   2.296       .  S
C306        O311   1.274   1_556  A
C306        C821   1.476       .  S
O307        C308   1.273       .  A
C308       C1202   1.482       .  S
O313       Mg315   2.145       .  S
O313       Mg321   2.154       .  S
O313        C348   1.235       .  S
C314        O327   1.237       .  S
C314        O351   1.271       .  A
C314        H353   1.080       .  S
Mg315       O344   2.159       .  S
Mg315       O359   2.308       .  S
Mg315       O355   2.272       .  S
Mg315       O326   2.296       .  S
O316       Mg358   2.146       .  S
O316       Mg341   2.153       .  S
O316        C337   1.236       .  S
O317        C348   1.269       .  A
O317       Mg341   2.296       .  S
C318        O320   1.272       .  A
C318        O332   1.275       .  A
C318        C802   1.475       .  S
O319        C347   1.269       .  A
O319       Mg321   2.298       .  S
O320       Mg352   2.271       .  S
Mg321       O327   2.146       .  S
Mg321       O335   2.265       .  S
Mg321       O323   2.311       .  S
C322        O360   1.272       .  A
C322        O328   1.274       .  A
C322        C725   1.474       .  S
O323        C330   1.276       .  A
H324        C337   1.080       .  S
C325        O339   1.236       .  S
C325        O340   1.270       .  A
C325        H350   1.081       .  S
O326        C349   1.270       .  A
O327       Mg341   2.155       .  S
O328       Mg358   2.303       .  S
C329        O342   1.269       .  A
C329        O334   1.272       .  A
C329        C773   1.467       .  S
C330        O357   1.272       .  A
C330        C757   1.477       .  S
Mg331       O338   2.142       .  S
Mg331       O339   2.152       .  S
Mg331       O332   2.303       .  S
Mg331       O333   2.303       .  S
Mg331       O360   2.268       .  S
O333        C337   1.270       .  A
O334       Mg341   2.294       .  S
O335        C354   1.273       .  A
O336        C356   1.274       .  A
O336       Mg352   2.288       .  S
O338       Mg352   2.156       .  S
O338        C349   1.236       .  S
O339       Mg358   2.139       .  S
O340       Mg352   2.297       .  S
Mg341       O357   2.269       .  S
O342       Mg358   2.249       .  S
H343        C348   1.081       .  S
O344       Mg352   2.144       .  S
O344        C347   1.235       .  S
H345        C347   1.080       .  S
H346        C349   1.080       .  S
O351       Mg358   2.305       .  S
C354        O359   1.275       .  A
C354        C738   1.473   1_545  S
O355        C356   1.272       .  A
C356        C786   1.472       .  S
C361        C933   1.471       .  S
C361        C362   1.413       .  A
C361        C366   1.398       .  A
C362        C866   1.483       .  S
C362        C363   1.406       .  A
C363        H368   1.084       .  S
C363        C364   1.407       .  A
C364        C706   1.481       .  S
C364        C365   1.414       .  A
C365        C770   1.477       .  S
C365        C366   1.401       .  A
C366        H367   1.085       .  S
C369        C978   1.476       .  S
C369        C370   1.416       .  A
C369        C374   1.405       .  A
C370        C850   1.482       .  S
C370        C371   1.406       .  A
C371        H376   1.084       .  S
C371        C372   1.403       .  A
C372        C690   1.475       .  S
C372        C373   1.411       .  A
C373        C754   1.477       .  S
C373        C374   1.401       .  A
C374        H375   1.085       .  S
O377       Mg379   2.155       .  S
O377       Mg385   2.168       .  S
O377        C412   1.235       .  S
C378        O391   1.235       .  S
C378        O415   1.269       .  A
C378        H417   1.080       .  S
Mg379       O408   2.167       .  S
Mg379       O423   2.301       .  S
Mg379       O419   2.290       .  S
Mg379       O390   2.296       .  S
O380       Mg422   2.157       .  S
O380       Mg405   2.158       .  S
O380        C401   1.236       .  S
O381        C412   1.269       .  A
O381       Mg405   2.295       .  S
C382        O384   1.271       .  A
C382        O396   1.278       .  A
C382        C658   1.478       .  S
O383        C411   1.269       .  A
O383       Mg385   2.294       .  S
O384       Mg416   2.262       .  S
Mg385       O391   2.144       .  S
Mg385       O399   2.265       .  S
Mg385       O387   2.298       .  S
C386        O424   1.273       .  A
C386        O392   1.275       .  A
C386        C613   1.476   1_545  S
O387        C394   1.275       .  A
H388        C401   1.079       .  S
C389        O403   1.235       .  S
C389        O404   1.271       .  A
C389        H414   1.081       .  S
O390        C413   1.269       .  A
O391       Mg405   2.166       .  S
O392       Mg422   2.302       .  S
C393        O406   1.274       .  A
C393        O398   1.276       .  A
C393        C642   1.478       .  S
C394        O421   1.274       .  A
C394        C709   1.478       .  S
Mg395       O402   2.155       .  S
Mg395       O403   2.159       .  S
Mg395       O396   2.329       .  S
Mg395       O397   2.305       .  S
Mg395       O424   2.276       .  S
O397        C401   1.271       .  A
O398       Mg405   2.316       .  S
O399        C418   1.272       .  A
O400        C420   1.275       .  A
O400       Mg416   2.305       .  S
O402       Mg416   2.161       .  S
O402        C413   1.235       .  S
O403       Mg422   2.164       .  S
O404       Mg416   2.305       .  S
Mg405       O421   2.291       .  S
O406       Mg422   2.279       .  S
H407        C412   1.081       .  S
O408       Mg416   2.144       .  S
O408        C411   1.235       .  S
H409        C411   1.081       .  S
H410        C413   1.081       .  S
O415       Mg422   2.297       .  S
C418        O423   1.276       .  A
C418        C626   1.473   1_655  S
O419        C420   1.274       .  A
C420        C677   1.480       .  S
O425       Mg427   2.138       .  S
O425       Mg433   2.158       .  S
O425        C460   1.236       .  S
C426        O439   1.235       .  S
C426        O463   1.269       .  A
C426        H465   1.080       .  S
Mg427       O456   2.171       .  S
Mg427       O471   2.298       .  S
Mg427       O467   2.259       .  S
Mg427       O438   2.292       .  S
O428       Mg470   2.153       .  S
O428       Mg453   2.145       .  S
O428        C449   1.236       .  S
O429        C460   1.270       .  A
O429       Mg453   2.297       .  S
C430        O432   1.274       .  A
C430        O444   1.275       .  A
C430        C693   1.474       .  S
O431        C459   1.269       .  A
O431       Mg433   2.291       .  S
O432       Mg464   2.277       .  S
Mg433       O439   2.139       .  S
Mg433       O447   2.271       .  S
Mg433       O435   2.281       .  S
C434        O472   1.273       .  A
C434        O440   1.273       .  A
C434        C530   1.474   1_655  S
O435        C442   1.273       .  A
H436        C449   1.080       .  S
C437        O451   1.236       .  S
C437        O452   1.271       .  A
C437        H462   1.081       .  S
O438        C461   1.268       .  A
O439       Mg453   2.153       .  S
O440       Mg470   2.291       .  S
C441        O454   1.273       .  A
C441        O446   1.275       .  A
C441        C594   1.474       .  S
C442        O469   1.273       .  A
C442        C578   1.469       .  S
Mg443       O450   2.151       .  S
Mg443       O451   2.159       .  S
Mg443       O444   2.296       .  S
Mg443       O445   2.299       .  S
Mg443       O472   2.277       .  S
O445        C449   1.270       .  A
O446       Mg453   2.308       .  S
O447        C466   1.271       .  A
O448        C468   1.277       .  A
O448       Mg464   2.319       .  S
O450       Mg464   2.162       .  S
O450        C461   1.234       .  S
O451       Mg470   2.157       .  S
O452       Mg464   2.306       .  S
Mg453       O469   2.272       .  S
O454       Mg470   2.281       .  S
H455        C460   1.081       .  S
O456       Mg464   2.147       .  S
O456        C459   1.236       .  S
H457        C459   1.081       .  S
H458        C461   1.081       .  S
O463       Mg470   2.297       .  S
C466        O471   1.274       .  A
C466        C546   1.474       .  S
O467        C468   1.271       .  A
C468        C565   1.475       .  S
C473        C994   1.476       .  S
C473        C474   1.412       .  A
C473        C478   1.403       .  A
C474        C914   1.477       .  S
C474        C475   1.402       .  A
C475        H480   1.085       .  S
C475        C476   1.406       .  A
C476        C562   1.478       .  S
C476        C477   1.415       .  A
C477        C645   1.479       .  S
C477        C478   1.405       .  A
C478        H479   1.085       .  S
C481       C1333   1.480       .  S
C481        C482   1.414       .  A
C481        C486   1.405   1_455  A
C482       C1157   1.479       .  S
C482        C483   1.403   1_455  A
C483        H488   1.085       .  S
C483        C484   1.403       .  A
C484        C597   1.481       .  S
C484        C485   1.413       .  A
C485        C674   1.477       .  S
C485        C486   1.405       .  A
C486        H487   1.085       .  S
C489       C1093   1.479       .  S
C489        C490   1.418       .  A
C489        C494   1.401       .  A
C490       C1349   1.474       .  S
C490        C491   1.403       .  A
C491        H496   1.084       .  S
C491        C492   1.400       .  A
C492        C805   1.475       .  S
C492        C493   1.409       .  A
C493        C581   1.467       .  S
C493        C494   1.399       .  A
C494        H495   1.084       .  S
C497       C1170   1.490       .  S
C497        C498   1.419       .  A
C497        C502   1.406       .  A
C498       C1074   1.476       .  S
C498        C499   1.405   1_565  A
C499        H504   1.084       .  S
C499        C500   1.404       .  A
C500        C661   1.486       .  S
C500        C501   1.414   1_545  A
C501        C789   1.475   1_565  S
C501        C502   1.402       .  A
C502        H503   1.084       .  S
C505        C818   1.482       .  S
C505        C506   1.413   1_656  A
C505        C510   1.414   1_546  A
C506        C885   1.482       .  S
C506        C507   1.414       .  A
C507        C965   1.478       .  S
C507        C508   1.415   1_545  A
C508        C837   1.485       .  S
C508        C509   1.413   1_455  A
C509        C901   1.483       .  S
C509        C510   1.414       .  A
C510        C946   1.479   1_554  S
C511       C1317   1.479       .  S
C511        C512   1.411       .  A
C511        C516   1.408       .  A
C512       C1141   1.476       .  S
C512        C513   1.411       .  A
C513       C1058   1.478       .  S
C513        C514   1.412       .  A
C514       C1298   1.479       .  S
C514        C515   1.413       .  A
C515       C1122   1.478       .  S
C515        C516   1.411       .  A
C516       C1042   1.477       .  S
C517        C533   1.481       .  S
C517        C518   1.412       .  A
C517        C522   1.414       .  A
C518        C741   1.480       .  S
C518        C519   1.413       .  A
C519        C610   1.481       .  S
C519        C520   1.413       .  A
C520        C549   1.481       .  S
C520        C521   1.413       .  A
C521        C722   1.480       .  S
C521        C522   1.413       .  A
C522        C629   1.480       .  S
C523        C528   1.387       .  A
C523        C524   1.400       .  A
C523        S529   1.703       .  A
C524        H535   1.084       .  S
C524        C525   1.400       .  A
C525        C534   1.369       .  A
C525        C526   1.387       .  A
C526        C527   1.403       .  A
C526        S532   1.708       .  A
C527        H536   1.083       .  S
C527        C528   1.404       .  A
C528        C531   1.374       .  A
S529        C530   1.724       .  A
C530        C531   1.389       .  A
C531        H537   1.083       .  S
S532        C533   1.723       .  A
C533        C534   1.384       .  A
C534        H538   1.083       .  S
C539        C544   1.387       .  A
C539        C540   1.403       .  A
C539        S545   1.711       .  A
C540        H551   1.083       .  S
C540        C541   1.404       .  A
C541        C550   1.371       .  A
C541        C542   1.387       .  A
C542        C543   1.400       .  A
C542        S548   1.707       .  A
C543        H552   1.083       .  S
C543        C544   1.402       .  A
C544        C547   1.368       .  A
S545        C546   1.725       .  A
C546        C547   1.387       .  A
C547        H553   1.083       .  S
S548        C549   1.719       .  A
C549        C550   1.386       .  A
C550        H554   1.083       .  S
C555        C560   1.387       .  A
C555        C556   1.403       .  A
C555        S561   1.709       .  A
C556        H567   1.082       .  S
C556        C557   1.404       .  A
C557        C566   1.372       .  A
C557        C558   1.387       .  A
C558        C559   1.404       .  A
C558        S564   1.709       .  A
C559        H568   1.082       .  S
C559        C560   1.404       .  A
C560        C563   1.373       .  A
S561        C562   1.722       .  A
C562        C563   1.386       .  A
C563        H569   1.082       .  S
S564        C565   1.725       .  A
C565        C566   1.388       .  A
C566        H570   1.083       .  S
C571        C576   1.387       .  A
C571        C572   1.398       .  A
C571        S577   1.699       .  A
C572        H583   1.082       .  S
C572        C573   1.398       .  A
C573        C582   1.366       .  A
C573        C574   1.387       .  A
C574        C575   1.402       .  A
C574        S580   1.706       .  A
C575        H584   1.082       .  S
C575        C576   1.403       .  A
C576        C579   1.372       .  A
S577        C578   1.723       .  A
C578        C579   1.387       .  A
C579        H585   1.082       .  S
S580        C581   1.720       .  A
C581        C582   1.380       .  A
C582        H586   1.082       .  S
C587        C592   1.387       .  A
C587        C588   1.402       .  A
C587        S593   1.707       .  A
C588        H599   1.083       .  S
C588        C589   1.403       .  A
C589        C598   1.372       .  A
C589        C590   1.387       .  A
C590        C591   1.403       .  A
C590        S596   1.708   1_655  A
C591        H600   1.083   1_655  S
C591        C592   1.404       .  A
C592        C595   1.373       .  A
S593        C594   1.724       .  A
C594        C595   1.388       .  A
C595        H601   1.083       .  S
S596        C597   1.724   1_455  A
C597        C598   1.386       .  A
C598        H602   1.083       .  S
C603        C608   1.387       .  A
C603        C604   1.403       .  A
C603        S609   1.710       .  A
C604        H615   1.083       .  S
C604        C605   1.405       .  A
C605        C614   1.372       .  A
C605        C606   1.387       .  A
C606        C607   1.400       .  A
C606        S612   1.707       .  A
C607        H616   1.083       .  S
C607        C608   1.401       .  A
C608        C611   1.368       .  A
S609        C610   1.721       .  A
C610        C611   1.383       .  A
C611        H617   1.083       .  S
S612        C613   1.723       .  A
C613        C614   1.390       .  A
C614        H618   1.083       .  S
C619        C624   1.386       .  A
C619        C620   1.402       .  A
C619        S625   1.709       .  A
C620        H631   1.083       .  S
C620        C621   1.403       .  A
C621        C630   1.369       .  A
C621        C622   1.387       .  A
C622        C623   1.400       .  A
C622        S628   1.707       .  A
C623        H632   1.083       .  S
C623        C624   1.402       .  A
C624        C627   1.368       .  A
S625        C626   1.725       .  A
C626        C627   1.387       .  A
C627        H633   1.083       .  S
S628        C629   1.720       .  A
C629        C630   1.385       .  A
C630        H634   1.083       .  S
C635        C640   1.386   1_545  A
C635        C636   1.404   1_545  A
C635        S641   1.710       .  A
C636        H647   1.082   1_565  S
C636        C637   1.404       .  A
C637        C646   1.373       .  A
C637        C638   1.387       .  A
C638        C639   1.404       .  A
C638        S644   1.710       .  A
C639        H648   1.083       .  S
C639        C640   1.405       .  A
C640        C643   1.374       .  A
S641        C642   1.725       .  A
C642        C643   1.389   1_545  A
C643        H649   1.083       .  S
S644        C645   1.722       .  A
C645        C646   1.387       .  A
C646        H650   1.082       .  S
C651        C656   1.387       .  A
C651        C652   1.406       .  A
C651        S657   1.709       .  A
C652        H663   1.083       .  S
C652        C653   1.406       .  A
C653        C662   1.377       .  A
C653        C654   1.387       .  A
C654        C655   1.402       .  A
C654        S660   1.704       .  A
C655        H664   1.083       .  S
C655        C656   1.402       .  A
C656        C659   1.373       .  A
S657        C658   1.727       .  A
C658        C659   1.387       .  A
C659        H665   1.083       .  S
S660        C661   1.724       .  A
C661        C662   1.389       .  A
C662        H666   1.083       .  S
C667        C672   1.387       .  A
C667        C668   1.403       .  A
C667        S673   1.711       .  A
C668        H679   1.082       .  S
C668        C669   1.405       .  A
C669        C678   1.373       .  A
C669        C670   1.386       .  A
C670        C671   1.404       .  A
C670        S676   1.712       .  A
C671        H680   1.082   1_655  S
C671        C672   1.405       .  A
C672        C675   1.373       .  A
S673        C674   1.722       .  A
C674        C675   1.385       .  A
C675        H681   1.083   1_655  S
S676        C677   1.724       .  A
C677        C678   1.390       .  A
C678        H682   1.083       .  S
C683        C688   1.387       .  A
C683        C684   1.404       .  A
C683        S689   1.711       .  A
C684        H695   1.082   1_455  S
C684        C685   1.405       .  A
C685        C694   1.373   1_455  A
C685        C686   1.387       .  A
C686        C687   1.400       .  A
C686        S692   1.704       .  A
C687        H696   1.081       .  S
C687        C688   1.400       .  A
C688        C691   1.367       .  A
S689        C690   1.721       .  A
C690        C691   1.384       .  A
C691        H697   1.081       .  S
S692        C693   1.724   1_455  A
C693        C694   1.389       .  A
C694        H698   1.082       .  S
C699        C704   1.387       .  A
C699        C700   1.402       .  A
C699        S705   1.711       .  A
C700        H711   1.082       .  S
C700        C701   1.404       .  A
C701        C710   1.370   1_455  A
C701        C702   1.386       .  A
C702        C703   1.405       .  A
C702        S708   1.714   1_455  A
C703        H712   1.082       .  S
C703        C704   1.406       .  A
C704        C707   1.372       .  A
S705        C706   1.721       .  A
C706        C707   1.389       .  A
C707        H713   1.083       .  S
S708        C709   1.725       .  A
C709        C710   1.388       .  A
C710        H714   1.083       .  S
C715        C720   1.387       .  A
C715        C716   1.401       .  A
C715        S721   1.707       .  A
C716        H727   1.083       .  S
C716        C717   1.402       .  A
C717        C726   1.371       .  A
C717        C718   1.387       .  A
C718        C719   1.402       .  A
C718        S724   1.707       .  A
C719        H728   1.083       .  S
C719        C720   1.402       .  A
C720        C723   1.370       .  A
S721        C722   1.721       .  A
C722        C723   1.385       .  A
C723        H729   1.083       .  S
S724        C725   1.725       .  A
C725        C726   1.387       .  A
C726        H730   1.083       .  S
C731        C736   1.387       .  A
C731        C732   1.402       .  A
C731        S737   1.708       .  A
C732        H743   1.083       .  S
C732        C733   1.403       .  A
C733        C742   1.369       .  A
C733        C734   1.387       .  A
C734        C735   1.400       .  A
C734        S740   1.706       .  A
C735        H744   1.083       .  S
C735        C736   1.401       .  A
C736        C739   1.369       .  A
S737        C738   1.725       .  A
C738        C739   1.387       .  A
C739        H745   1.083       .  S
S740        C741   1.719       .  A
C741        C742   1.385       .  A
C742        H746   1.083       .  S
C747        C752   1.387       .  A
C747        C748   1.405       .  A
C747        S753   1.711       .  A
C748        H759   1.082   1_565  S
C748        C749   1.406       .  A
C749        C758   1.375   1_565  A
C749        C750   1.387       .  A
C750        C751   1.400       .  A
C750        S756   1.705       .  A
C751        H760   1.082       .  S
C751        C752   1.401       .  A
C752        C755   1.370       .  A
S753        C754   1.723       .  A
C754        C755   1.383       .  A
C755        H761   1.082       .  S
S756        C757   1.723   1_565  A
C757        C758   1.391       .  A
C758        H762   1.083       .  S
C763        C768   1.387       .  A
C763        C764   1.399       .  A
C763        S769   1.704       .  A
C764        H775   1.083       .  S
C764        C765   1.400       .  A
C765        C774   1.367       .  A
C765        C766   1.387       .  A
C766        C767   1.401       .  A
C766        S772   1.706       .  A
C767        H776   1.083       .  S
C767        C768   1.402       .  A
C768        C771   1.369       .  A
S769        C770   1.723       .  A
C770        C771   1.385       .  A
C771        H777   1.083       .  S
S772        C773   1.723       .  A
C773        C774   1.385       .  A
C774        H778   1.083       .  S
C779        C784   1.387       .  A
C779        C780   1.397       .  A
C779        S785   1.700       .  A
C780        H791   1.082       .  S
C780        C781   1.398       .  A
C781        C790   1.365       .  A
C781        C782   1.387       .  A
C782        C783   1.406   1_545  A
C782        S788   1.713   1_545  A
C783        H792   1.082       .  S
C783        C784   1.407   1_565  A
C784        C787   1.374       .  A
S785        C786   1.721       .  A
C786        C787   1.390       .  A
C787        H793   1.083       .  S
S788        C789   1.724   1_565  A
C789        C790   1.381       .  A
C790        H794   1.083       .  S
C795        C800   1.387       .  A
C795        C796   1.401       .  A
C795        S801   1.706       .  A
C796        H807   1.081       .  S
C796        C797   1.401       .  A
C797        C806   1.367       .  A
C797        C798   1.387       .  A
C798        C799   1.403       .  A
C798        S804   1.711       .  A
C799        H808   1.081       .  S
C799        C800   1.405       .  A
C800        C803   1.372       .  A
S801        C802   1.724       .  A
C802        C803   1.389       .  A
C803        H809   1.082       .  S
S804        C805   1.720       .  A
C805        C806   1.384       .  A
C806        H810   1.081       .  S
C811        C816   1.387   1_556  A
C811        C812   1.403       .  A
C811        S817   1.708       .  A
C812        H823   1.083       .  S
C812        C813   1.404       .  A
C813        C822   1.374       .  A
C813        C814   1.387   1_556  A
C814        C815   1.401       .  A
C814        S820   1.705       .  A
C815        H824   1.083       .  S
C815        C816   1.401       .  A
C816        C819   1.370       .  A
S817        C818   1.722       .  A
C818        C819   1.383   1_556  A
C819        H825   1.083       .  S
S820        C821   1.725   1_554  A
C821        C822   1.388       .  A
C822        H826   1.083       .  S
C827        C832   1.387   1_556  A
C827        C828   1.400       .  A
C827        S833   1.703       .  A
C828        H839   1.083       .  S
C828        C829   1.400       .  A
C829        C838   1.369       .  A
C829        C830   1.387   1_556  A
C830        C831   1.407       .  A
C830        S836   1.713       .  A
C831        H840   1.083       .  S
C831        C832   1.407       .  A
C832        C835   1.377       .  A
S833        C834   1.724   1_556  A
C834        C835   1.391       .  A
C835        H841   1.083       .  S
S836        C837   1.725       .  A
C837        C838   1.383   1_554  A
C838        H842   1.083       .  S
C843        C848   1.387       .  A
C843        C844   1.403       .  A
C843        S849   1.710       .  A
C844        H855   1.083       .  S
C844        C845   1.404       .  A
C845        C854   1.372       .  A
C845        C846   1.386       .  A
C846        C847   1.404       .  A
C846        S852   1.712       .  A
C847        H856   1.082       .  S
C847        C848   1.405       .  A
C848        C851   1.373       .  A
S849        C850   1.724       .  A
C850        C851   1.387       .  A
C851        H857   1.083       .  S
S852        C853   1.725       .  A
C853        C854   1.389       .  A
C854        H858   1.083       .  S
C859        C864   1.386       .  A
C859        C860   1.404       .  A
C859        S865   1.712       .  A
C860        H871   1.082       .  S
C860        C861   1.405       .  A
C861        C870   1.373       .  A
C861        C862   1.386       .  A
C862        C863   1.403       .  A
C862        S868   1.710       .  A
C863        H872   1.082       .  S
C863        C864   1.404       .  A
C864        C867   1.371       .  A
S865        C866   1.723       .  A
C866        C867   1.388       .  A
C867        H873   1.082       .  S
S868        C869   1.724       .  A
C869        C870   1.390       .  A
C870        H874   1.083       .  S
C875        C880   1.386   1_554  A
C875        C876   1.404       .  A
C875        S881   1.711       .  A
C876        H887   1.083       .  S
C876        C877   1.405       .  A
C877        C886   1.373       .  A
C877        C878   1.387   1_554  A
C878        C879   1.401       .  A
C878        S884   1.708       .  A
C879        H888   1.083       .  S
C879        C880   1.402       .  A
C880        C883   1.371       .  A
S881        C882   1.726       .  A
C882        C883   1.388   1_554  A
C883        H889   1.083       .  S
S884        C885   1.720   1_556  A
C885        C886   1.386       .  A
C886        H890   1.083       .  S
C891        C896   1.387   1_556  A
C891        C892   1.403       .  A
C891        S897   1.709       .  A
C892        H903   1.083       .  S
C892        C893   1.404       .  A
C893        C902   1.371       .  A
C893        C894   1.387   1_556  A
C894        C895   1.401       .  A
C894        S900   1.707       .  A
C895        H904   1.083       .  S
C895        C896   1.402       .  A
C896        C899   1.370       .  A
S897        C898   1.725       .  A
C898        C899   1.388   1_556  A
C899        H905   1.083       .  S
S900        C901   1.722       .  A
C901        C902   1.386   1_554  A
C902        H906   1.083       .  S
C907        C912   1.387       .  A
C907        C908   1.406       .  A
C907        S913   1.711       .  A
C908        H919   1.082       .  S
C908        C909   1.406       .  A
C909        C918   1.376       .  A
C909        C910   1.387       .  A
C910        C911   1.401       .  A
C910        S916   1.703       .  A
C911        H920   1.082       .  S
C911        C912   1.401       .  A
C912        C915   1.370       .  A
S913        C914   1.722       .  A
C914        C915   1.384       .  A
C915        H921   1.082       .  S
S916        C917   1.724       .  A
C917        C918   1.390       .  A
C918        H922   1.082       .  S
C923        C928   1.386       .  A
C923        C924   1.403       .  A
C923        S929   1.711       .  A
C924        H935   1.082       .  S
C924        C925   1.404       .  A
C925        C934   1.370       .  A
C925        C926   1.388       .  A
C926        C927   1.397       .  A
C926        S932   1.704       .  A
C927        H936   1.082       .  S
C927        C928   1.399       .  A
C928        C931   1.365       .  A
S929        C930   1.724       .  A
C930        C931   1.385       .  A
C931        H937   1.082       .  S
S932        C933   1.718       .  A
C933        C934   1.385       .  A
C934        H938   1.082       .  S
C939        C944   1.387   1_554  A
C939        C940   1.400       .  A
C939        S945   1.706       .  A
C940        H951   1.084       .  S
C940        C941   1.401       .  A
C941        C950   1.369       .  A
C941        C942   1.387   1_564  A
C942        C943   1.403       .  A
C942        S948   1.709       .  A
C943        H952   1.083       .  S
C943        C944   1.403   1_545  A
C944        C947   1.371       .  A
S945        C946   1.719   1_554  A
C946        C947   1.386       .  A
C947        H953   1.083   1_565  S
S948        C949   1.724       .  A
C949        C950   1.387   1_546  A
C950        H954   1.084       .  S
C955        C960   1.387   1_566  A
C955        C956   1.399       .  A
C955        S961   1.703       .  A
C956        H967   1.084       .  S
C956        C957   1.399       .  A
C957        C966   1.366       .  A
C957        C958   1.387   1_566  A
C958        C959   1.403       .  A
C958        S964   1.709       .  A
C959        H968   1.083       .  S
C959        C960   1.404       .  A
C960        C963   1.372       .  A
S961        C962   1.724   1_556  A
C962        C963   1.387   1_565  A
C963        H969   1.083       .  S
S964        C965   1.721       .  A
C965        C966   1.383   1_544  A
C966        H970   1.084       .  S
C971        C976   1.387       .  A
C971        C972   1.404       .  A
C971        S977   1.710       .  A
C972        H983   1.082       .  S
C972        C973   1.405       .  A
C973        C982   1.374       .  A
C973        C974   1.387       .  A
C974        C975   1.402       .  A
C974        S980   1.707       .  A
C975        H984   1.082       .  S
C975        C976   1.402       .  A
C976        C979   1.371       .  A
S977        C978   1.723       .  A
C978        C979   1.384       .  A
C979        H985   1.083       .  S
S980        C981   1.724       .  A
C981        C982   1.389       .  A
C982        H986   1.083       .  S
C987        C992   1.387       .  A
C987        C988   1.403       .  A
C987        S993   1.710       .  A
C988        H999   1.082       .  S
C988        C989   1.404       .  A
C989        C998   1.371       .  A
C989        C990   1.387       .  A
C990        C991   1.400       .  A
C990        S996   1.705       .  A
C991       H1000   1.081       .  S
C991        C992   1.401       .  A
C992        C995   1.368       .  A
S993        C994   1.721       .  A
C994        C995   1.384       .  A
C995       H1001   1.080       .  S
S996        C997   1.723       .  A
C997        C998   1.388       .  A
C998       H1002   1.083       .  S
C1003      C1008   1.387       .  A
C1003      C1004   1.404       .  A
C1003      S1009   1.715       .  A
C1004      H1015   1.082       .  S
C1004      C1005   1.406       .  A
C1005      C1014   1.371       .  A
C1005      C1006   1.386       .  A
C1006      C1007   1.400       .  A
C1006      S1012   1.710       .  A
C1007      H1016   1.082       .  S
C1007      C1008   1.402       .  A
C1008      C1011   1.367       .  A
S1009      C1010   1.723       .  A
C1010      C1011   1.385       .  A
C1011      H1017   1.083       .  S
S1012      C1013   1.722       .  A
C1013      C1014   1.390       .  A
C1014      H1018   1.083       .  S
C1019      C1024   1.387       .  A
C1019      C1020   1.403       .  A
C1019      S1025   1.706       .  A
C1020      H1031   1.083       .  S
C1020      C1021   1.403       .  A
C1021      C1030   1.373       .  A
C1021      C1022   1.387       .  A
C1022      C1023   1.401       .  A
C1022      S1028   1.704       .  A
C1023      H1032   1.083       .  S
C1023      C1024   1.401       .  A
C1024      C1027   1.371       .  A
S1025      C1026   1.724       .  A
C1026      C1027   1.384       .  A
C1027      H1033   1.083       .  S
S1028      C1029   1.725       .  A
C1029      C1030   1.387       .  A
C1030      H1034   1.083       .  S
C1035      C1040   1.388       .  A
C1035      C1036   1.401       .  A
C1035      S1041   1.708       .  A
C1036      H1047   1.083       .  S
C1036      C1037   1.403       .  A
C1037      C1046   1.370       .  A
C1037      C1038   1.387       .  A
C1038      C1039   1.400       .  A
C1038      S1044   1.707       .  A
C1039      H1048   1.083       .  S
C1039      C1040   1.401       .  A
C1040      C1043   1.368       .  A
S1041      C1042   1.720       .  A
C1042      C1043   1.383       .  A
C1043      H1049   1.083       .  S
S1044      C1045   1.723       .  A
C1045      C1046   1.387       .  A
C1046      H1050   1.083       .  S
C1051      C1056   1.387       .  A
C1051      C1052   1.405       .  A
C1051      S1057   1.712       .  A
C1052      H1063   1.083       .  S
C1052      C1053   1.406       .  A
C1053      C1062   1.374       .  A
C1053      C1054   1.387       .  A
C1054      C1055   1.399       .  A
C1054      S1060   1.704       .  A
C1055      H1064   1.083       .  S
C1055      C1056   1.399       .  A
C1056      C1059   1.368       .  A
S1057      C1058   1.723       .  A
C1058      C1059   1.381       .  A
C1059      H1065   1.083       .  S
S1060      C1061   1.722       .  A
C1061      C1062   1.391       .  A
C1062      H1066   1.083       .  S
C1067      C1072   1.387       .  A
C1067      C1068   1.405       .  A
C1067      S1073   1.712   1_565  A
C1068      H1079   1.082   1_565  S
C1068      C1069   1.406       .  A
C1069      C1078   1.376       .  A
C1069      C1070   1.387       .  A
C1070      C1071   1.399       .  A
C1070      S1076   1.702       .  A
C1071      H1080   1.082       .  S
C1071      C1072   1.399       .  A
C1072      C1075   1.368       .  A
S1073      C1074   1.724   1_545  A
C1074      C1075   1.383       .  A
C1075      H1081   1.082       .  S
S1076      C1077   1.723       .  A
C1077      C1078   1.390       .  A
C1078      H1082   1.083       .  S
C1083      C1088   1.387       .  A
C1083      C1084   1.398       .  A
C1083      S1089   1.704       .  A
C1084      H1095   1.081       .  S
C1084      C1085   1.399       .  A
C1085      C1094   1.365       .  A
C1085      C1086   1.386       .  A
C1086      C1087   1.402       .  A
C1086      S1092   1.710       .  A
C1087      H1096   1.081       .  S
C1087      C1088   1.404       .  A
C1088      C1091   1.369       .  A
S1089      C1090   1.720       .  A
C1090      C1091   1.387       .  A
C1091      H1097   1.082       .  S
S1092      C1093   1.723       .  A
C1093      C1094   1.385       .  A
C1094      H1098   1.080       .  S
C1099      C1104   1.388       .  A
C1099      C1100   1.405       .  A
C1099      S1105   1.710       .  A
C1100      H1111   1.082       .  S
C1100      C1101   1.405       .  A
C1101      C1110   1.375       .  A
C1101      C1102   1.387       .  A
C1102      C1103   1.397       .  A
C1102      S1108   1.700       .  A
C1103      H1112   1.082       .  S
C1103      C1104   1.397       .  A
C1104      C1107   1.367       .  A
S1105      C1106   1.723       .  A
C1106      C1107   1.381       .  A
C1107      H1113   1.083       .  S
S1108      C1109   1.722       .  A
C1109      C1110   1.389       .  A
C1110      H1114   1.083       .  S
C1115      C1120   1.388       .  A
C1115      C1116   1.401       .  A
C1115      S1121   1.707       .  A
C1116      H1127   1.083       .  S
C1116      C1117   1.402       .  A
C1117      C1126   1.370       .  A
C1117      C1118   1.387       .  A
C1118      C1119   1.400       .  A
C1118      S1124   1.705       .  A
C1119      H1128   1.083       .  S
C1119      C1120   1.400       .  A
C1120      C1123   1.368       .  A
S1121      C1122   1.720       .  A
C1122      C1123   1.382       .  A
C1123      H1129   1.083       .  S
S1124      C1125   1.724       .  A
C1125      C1126   1.387       .  A
C1126      H1130   1.083       .  S
C1131      C1136   1.387       .  A
C1131      C1132   1.401       .  A
C1131      S1137   1.706       .  A
C1132      H1143   1.083       .  S
C1132      C1133   1.401       .  A
C1133      C1142   1.368       .  A
C1133      C1134   1.388       .  A
C1134      C1135   1.400       .  A
C1134      S1140   1.705       .  A
C1135      H1144   1.083       .  S
C1135      C1136   1.401       .  A
C1136      C1139   1.369       .  A
S1137      C1138   1.724       .  A
C1138      C1139   1.386       .  A
C1139      H1145   1.083       .  S
S1140      C1141   1.719       .  A
C1141      C1142   1.382       .  A
C1142      H1146   1.083       .  S
C1147      C1152   1.387       .  A
C1147      C1148   1.403       .  A
C1147      S1153   1.709       .  A
C1148      H1159   1.082       .  S
C1148      C1149   1.404       .  A
C1149      C1158   1.372       .  A
C1149      C1150   1.387       .  A
C1150      C1151   1.400       .  A
C1150      S1156   1.707   1_455  A
C1151      H1160   1.083   1_455  S
C1151      C1152   1.401       .  A
C1152      C1155   1.369       .  A
S1153      C1154   1.724       .  A
C1154      C1155   1.386       .  A
C1155      H1161   1.083       .  S
S1156      C1157   1.722   1_655  A
C1157      C1158   1.387       .  A
C1158      H1162   1.083       .  S
C1163      C1168   1.385       .  A
C1163      C1164   1.404       .  A
C1163      S1169   1.711       .  A
C1164      H1175   1.083       .  S
C1164      C1165   1.405       .  A
C1165      C1174   1.373       .  A
C1165      C1166   1.386       .  A
C1166      C1167   1.402       .  A
C1166      S1172   1.710       .  A
C1167      H1176   1.083       .  S
C1167      C1168   1.403       .  A
C1168      C1171   1.371       .  A
S1169      C1170   1.726       .  A
C1170      C1171   1.389       .  A
C1171      H1177   1.081       .  S
S1172      C1173   1.724       .  A
C1173      C1174   1.390       .  A
C1174      H1178   1.083       .  S
C1179      C1184   1.387       .  A
C1179      C1180   1.403       .  A
C1179      S1185   1.708       .  A
C1180      H1191   1.082       .  S
C1180      C1181   1.404       .  A
C1181      C1190   1.371       .  A
C1181      C1182   1.386       .  A
C1182      C1183   1.402       .  A
C1182      S1188   1.709       .  A
C1183      H1192   1.082   1_655  S
C1183      C1184   1.403       .  A
C1184      C1187   1.372   1_655  A
S1185      C1186   1.725   1_655  A
C1186      C1187   1.387       .  A
C1187      H1193   1.082       .  S
S1188      C1189   1.722       .  A
C1189      C1190   1.389       .  A
C1190      H1194   1.081       .  S
C1195      C1200   1.386       .  A
C1195      C1196   1.403       .  A
C1195      S1201   1.711       .  A
C1196      H1207   1.083       .  S
C1196      C1197   1.404       .  A
C1197      C1206   1.371       .  A
C1197      C1198   1.387       .  A
C1198      C1199   1.405       .  A
C1198      S1204   1.713       .  A
C1199      H1208   1.083       .  S
C1199      C1200   1.406       .  A
C1200      C1203   1.374       .  A
S1201      C1202   1.725       .  A
C1202      C1203   1.391       .  A
C1203      H1209   1.083       .  S
S1204      C1205   1.723       .  A
C1205      C1206   1.385       .  A
C1206      H1210   1.083       .  S
C1211      C1216   1.387       .  A
C1211      C1212   1.401       .  A
C1211      S1217   1.708       .  A
C1212      H1223   1.082       .  S
C1212      C1213   1.403       .  A
C1213      C1222   1.371       .  A
C1213      C1214   1.386       .  A
C1214      C1215   1.405       .  A
C1214      S1220   1.712       .  A
C1215      H1224   1.082       .  S
C1215      C1216   1.405       .  A
C1216      C1219   1.373       .  A
S1217      C1218   1.720       .  A
C1218      C1219   1.386       .  A
C1219      H1225   1.083       .  S
S1220      C1221   1.725       .  A
C1221      C1222   1.389       .  A
C1222      H1226   1.083       .  S
C1227      C1232   1.387       .  A
C1227      C1228   1.402       .  A
C1227      S1233   1.708   1_545  A
C1228      H1239   1.082       .  S
C1228      C1229   1.403       .  A
C1229      C1238   1.370       .  A
C1229      C1230   1.387       .  A
C1230      C1231   1.403       .  A
C1230      S1236   1.711       .  A
C1231      H1240   1.082       .  S
C1231      C1232   1.404       .  A
C1232      C1235   1.371       .  A
S1233      C1234   1.723       .  A
C1234      C1235   1.388   1_565  A
C1235      H1241   1.083       .  S
S1236      C1237   1.722       .  A
C1237      C1238   1.386       .  A
C1238      H1242   1.082       .  S
C1243      C1248   1.387       .  A
C1243      C1244   1.403       .  A
C1243      S1249   1.707       .  A
C1244      H1255   1.082       .  S
C1244      C1245   1.403       .  A
C1245      C1254   1.370       .  A
C1245      C1246   1.387       .  A
C1246      C1247   1.398       .  A
C1246      S1252   1.705       .  A
C1247      H1256   1.082       .  S
C1247      C1248   1.400       .  A
C1248      C1251   1.367       .  A
S1249      C1250   1.725       .  A
C1250      C1251   1.385       .  A
C1251      H1257   1.083       .  S
S1252      C1253   1.718       .  A
C1253      C1254   1.385       .  A
C1254      H1258   1.082       .  S
C1259      C1264   1.387       .  A
C1259      C1260   1.401       .  A
C1259      S1265   1.705       .  A
C1260      H1271   1.082       .  S
C1260      C1261   1.401       .  A
C1261      C1270   1.369       .  A
C1261      C1262   1.388       .  A
C1262      C1263   1.399       .  A
C1262      S1268   1.704       .  A
C1263      H1272   1.082       .  S
C1263      C1264   1.400       .  A
C1264      C1267   1.367       .  A
S1265      C1266   1.724       .  A
C1266      C1267   1.385       .  A
C1267      H1273   1.083       .  S
S1268      C1269   1.719       .  A
C1269      C1270   1.383       .  A
C1270      H1274   1.083       .  S
C1275      C1280   1.387       .  A
C1275      C1276   1.402       .  A
C1275      S1281   1.709   1_545  A
C1276      H1287   1.082       .  S
C1276      C1277   1.403       .  A
C1277      C1286   1.371       .  A
C1277      C1278   1.387       .  A
C1278      C1279   1.401       .  A
C1278      S1284   1.708       .  A
C1279      H1288   1.082       .  S
C1279      C1280   1.403       .  A
C1280      C1283   1.370   1_545  A
S1281      C1282   1.724       .  A
C1282      C1283   1.387       .  A
C1283      H1289   1.083       .  S
S1284      C1285   1.721       .  A
C1285      C1286   1.385       .  A
C1286      H1290   1.083       .  S
C1291      C1296   1.387       .  A
C1291      C1292   1.402       .  A
C1291      S1297   1.709       .  A
C1292      H1303   1.083       .  S
C1292      C1293   1.403       .  A
C1293      C1302   1.371       .  A
C1293      C1294   1.387       .  A
C1294      C1295   1.402       .  A
C1294      S1300   1.707       .  A
C1295      H1304   1.083       .  S
C1295      C1296   1.402       .  A
C1296      C1299   1.370       .  A
S1297      C1298   1.721       .  A
C1298      C1299   1.384       .  A
C1299      H1305   1.083       .  S
S1300      C1301   1.724       .  A
C1301      C1302   1.389       .  A
C1302      H1306   1.083       .  S
C1307      C1312   1.387       .  A
C1307      C1308   1.403       .  A
C1307      S1313   1.709       .  A
C1308      H1319   1.083       .  S
C1308      C1309   1.403       .  A
C1309      C1318   1.370       .  A
C1309      C1310   1.387       .  A
C1310      C1311   1.400       .  A
C1310      S1316   1.706       .  A
C1311      H1320   1.083       .  S
C1311      C1312   1.402       .  A
C1312      C1315   1.369       .  A
S1313      C1314   1.725       .  A
C1314      C1315   1.387       .  A
C1315      H1321   1.083       .  S
S1316      C1317   1.720       .  A
C1317      C1318   1.384       .  A
C1318      H1322   1.083       .  S
C1323      C1328   1.386       .  A
C1323      C1324   1.405       .  A
C1323      S1329   1.712       .  A
C1324      H1335   1.082   1_455  S
C1324      C1325   1.406       .  A
C1325      C1334   1.375   1_455  A
C1325      C1326   1.387       .  A
C1326      C1327   1.402       .  A
C1326      S1332   1.707       .  A
C1327      H1336   1.082       .  S
C1327      C1328   1.402       .  A
C1328      C1331   1.371       .  A
S1329      C1330   1.725       .  A
C1330      C1331   1.388       .  A
C1331      H1337   1.083       .  S
S1332      C1333   1.722       .  A
C1333      C1334   1.388   1_455  A
C1334      H1338   1.082       .  S
C1339      C1344   1.386       .  A
C1339      C1340   1.402       .  A
C1339      S1345   1.710       .  A
C1340      H1351   1.081       .  S
C1340      C1341   1.403       .  A
C1341      C1350   1.368       .  A
C1341      C1342   1.387       .  A
C1342      C1343   1.399       .  A
C1342      S1348   1.706       .  A
C1343      H1352   1.081       .  S
C1343      C1344   1.401       .  A
C1344      C1347   1.366       .  A
S1345      C1346   1.723       .  A
C1346      C1347   1.386       .  A
C1347      H1353   1.082       .  S
S1348      C1349   1.719       .  A
C1349      C1350   1.386       .  A
C1350      H1354   1.082       .  S
C1355      C1360   1.388       .  A
C1355      C1356   1.399       .  A
C1355      S1361   1.703       .  A
C1356      H1367   1.082       .  S
C1356      C1357   1.400       .  A
C1357      C1366   1.368       .  A
C1357      C1358   1.387   1_655  A
C1358      C1359   1.400   1_455  A
C1358      S1364   1.702       .  A
C1359      H1368   1.082   1_655  S
C1359      C1360   1.400       .  A
C1360      C1363   1.368       .  A
S1361      C1362   1.720       .  A
C1362      C1363   1.382       .  A
C1363      H1369   1.082       .  S
S1364      C1365   1.723       .  A
C1365      C1366   1.385   1_455  A
C1366      H1370   1.083       .  S
C1371      C1376   1.387       .  A
C1371      C1372   1.404       .  A
C1371      S1377   1.710       .  A
C1372      H1383   1.083       .  S
C1372      C1373   1.404       .  A
C1373      C1382   1.372       .  A
C1373      C1374   1.387       .  A
C1374      C1375   1.402       .  A
C1374      S1380   1.708       .  A
C1375      H1384   1.083       .  S
C1375      C1376   1.403       .  A
C1376      C1379   1.372       .  A
S1377      C1378   1.725       .  A
C1378      C1379   1.387       .  A
C1379      H1385   1.083       .  S
S1380      C1381   1.723       .  A
C1381      C1382   1.388       .  A
C1382      H1386   1.083       .  S
