geometry optimzed in LAMMPS
_audit_creation_date              2020-11-30 
_audit_creation_method            'lammps2cif' 
_symmetry_space_group_name_H-M    'P1' 
_symmetry_Int_Tables_number       1 
_symmetry_cell_setting            triclinic 
loop_ 
_symmetry_equiv_pos_as_xyz 
  x,y,z 
_cell_length_a                    25.87160883 
_cell_length_b                    26.037969345931288 
_cell_length_c                    25.72556144930591 
_cell_angle_alpha                 88.20109385160346 
_cell_angle_beta                  89.73592616414061 
_cell_angle_gamma                 91.69929128175977 
loop_ 
_atom_site_label 
_atom_site_type_symbol 
_atom_site_fract_x 
_atom_site_fract_y 
_atom_site_fract_z 
_atom_site_charge 
O1          O  0.57222253  0.37120264  0.08215623    -0.72300
O2          O  0.52478876  0.41137741  0.13839074    -0.51500
C3          C  0.54170237  0.36934257  0.12077327     0.81400
O4          O  0.67702870  0.46776591  0.89721525    -0.56900
O5          O  0.61667221  0.45756295  0.83331810    -0.50000
C6          C  0.66358963  0.45821958  0.85090315     0.73400
O7          O  0.67876477  0.48504219  0.06196297    -0.71500
O8          O  0.62048540  0.48994449  0.12856327    -0.52000
C9          C  0.66673664  0.48608127  0.10989743     0.79400
O10         O  0.54360411  0.32609908  0.92027195    -0.56600
O11         O  0.53603159  0.37751321  0.84701128    -0.49700
C12         C  0.54193517  0.33364089  0.87104067     0.76000
Zr13       Zr  0.53376560  0.37373614  0.99775191     2.54700
O14         O  0.57501470  0.29159529  0.01169183    -0.77200
O15         O  0.45564865  0.32290062  0.01949914    -0.90600
Zr16       Zr  0.63917417  0.48527666  0.97883328     2.64700
O17         O  0.71552449  0.43246442  0.97988303    -0.95600
O18         O  0.69027913  0.56462156  0.96511542    -0.77600
O19         O  0.58874950  0.43468691  0.03850086    -0.81000
O20         O  0.58682011  0.42218502  0.93818204    -2.15700
O21         O  0.38668459  0.46048014  0.90420060    -0.64400
O22         O  0.44553281  0.45408815  0.83815512    -0.48900
C23         C  0.39889223  0.45399407  0.85702548     0.74400
O24         O  0.53337648  0.63385786  0.04366310    -0.57300
O25         O  0.53253417  0.57994549  0.11581291    -0.49300
C26         C  0.53101707  0.62478009  0.09275705     0.76200
O27         O  0.57359241  0.58723467  0.88148612    -0.68700
O28         O  0.52636064  0.54611823  0.82420345    -0.47300
C29         C  0.54363396  0.58853960  0.84273524     0.77600
O30         O  0.39030442  0.49289820  0.06558889    -0.64000
O31         O  0.45201132  0.50480488  0.12793018    -0.51200
C32         C  0.40491474  0.50392617  0.11122591     0.76000
Zr33       Zr  0.42855203  0.47555873  0.98401921     2.77500
O34         O  0.36499888  0.54233799  0.97358206    -0.94800
O35         O  0.36603979  0.40498321  0.99979840    -0.75600
Zr36       Zr  0.53341349  0.58543444  0.96552930     2.70100
O37         O  0.45805446  0.63266062  0.93741055    -0.76800
O38         O  0.57586683  0.67008421  0.95725512    -0.95900
Zr39       Zr  0.53562115  0.49157866  0.08522014     2.21500
Zr40       Zr  0.53227454  0.46609110  0.87762632     2.11100
O41         O  0.47875783  0.52497505  0.92287747    -2.44600
O42         O  0.48172589  0.53648155  0.02558844    -0.76600
O43         O  0.47939930  0.41735971  0.93879446    -0.68800
O44         O  0.58849747  0.54263708  0.02515540    -2.29800
O45         O  0.48006266  0.42955095  0.04323752    -2.26000
O46         O  0.58630853  0.52874759  0.91999205    -0.70600
H47         H  0.60912228  0.39891632  0.92102296     0.81400
H48         H  0.61055206  0.56686816  0.04299123     0.82500
H49         H  0.45630251  0.54241769  0.89870148     0.84700
H50         H  0.45782559  0.41068726  0.06785563     0.82300
H51         H  0.68570387  0.57398106  0.92784230     0.45400
H52         H  0.61253839  0.66309932  0.94985065     0.44400
H53         H  0.44996304  0.65446988  0.96703758     0.44000
H54         H  0.36818734  0.55483508  0.93693712     0.42000
H55         H  0.33197186  0.42034576  0.99358009     0.45100
H56         H  0.46819304  0.28937327  0.03253034     0.39900
H57         H  0.61208953  0.30071796  0.01647340     0.46000
H58         H  0.74354209  0.45378925  0.99515597     0.42400
H59         H  0.33108067  0.52372786  0.97548711     0.47300
H60         H  0.44008670  0.31535739  0.98537900     0.46100
H61         H  0.70789025  0.40467734  0.00620229     0.46200
H62         H  0.56268478  0.68550413  0.92444056     0.46500
N63         N  0.23401594  0.55552595  0.18130819    -0.00500
C64         C  0.21460967  0.58430257  0.21977787     0.02100
C65         C  0.25143412  0.61975882  0.23599835    -0.20800
C66         C  0.29613773  0.61039662  0.20996597    -0.21000
C67         C  0.28482365  0.57005975  0.17828633     0.02000
H68         H  0.24860624  0.64399764  0.26929030     0.15800
H69         H  0.33404950  0.62701907  0.21789517     0.15800
N70         N  0.83972262  0.46627568  0.18936928    -0.00500
C71         C  0.85224599  0.44669132  0.23678806     0.02100
C72         C  0.82482917  0.40124519  0.24714630    -0.20800
C73         C  0.78995510  0.39599522  0.20769459    -0.21000
C74         C  0.79761585  0.43826912  0.17464230     0.02000
H75         H  0.82211826  0.38065783  0.28434646     0.15800
H76         H  0.75596465  0.37067683  0.20938951     0.15800
N77         N  0.22732614  0.45905450  0.77073146    -0.00500
C78         C  0.26565900  0.42519141  0.78035736     0.02100
C79         C  0.27352436  0.39517185  0.73787220    -0.20800
C80         C  0.24302838  0.41366605  0.69897440    -0.21000
C81         C  0.21652631  0.45335228  0.71938593     0.02000
H82         H  0.30479250  0.36902502  0.73257315     0.15800
H83         H  0.24419398  0.40302687  0.65866495     0.15800
N84         N  0.83976163  0.44672872  0.78466526    -0.00500
C85         C  0.79945794  0.41311326  0.79387287     0.02100
C86         C  0.80011797  0.37424323  0.75870042    -0.20800
C87         C  0.83866171  0.38718579  0.72360455    -0.21000
C88         C  0.86035192  0.43327445  0.73890843     0.02000
H89         H  0.76946747  0.34587207  0.75257379     0.15800
H90         H  0.84276678  0.37054870  0.68580633     0.15800
N91         N  0.03294246  0.49686826  0.06335594    -0.33600
N92         N  0.12102690  0.49070526  0.98940265    -0.54200
N93         N  0.04604262  0.47545107  0.90379516    -0.33600
N94         N  0.95940967  0.47566264  0.97932165    -0.54200
C95         C  0.07392889  0.49960329  0.09620058     0.30000
C96         C  0.98984224  0.48411265  0.09235028     0.30000
C97         C  0.09125579  0.46504941  0.87904387     0.29900
C98         C  0.00598618  0.45807307  0.87402440     0.29900
C99         C  0.14691690  0.50985535  0.03109836     0.38600
C100        C  0.15416881  0.49321496  0.94785952     0.38600
C101        C  0.92542325  0.47637076  0.01977874     0.38600
C102        C  0.93108456  0.46970506  0.93537265     0.38600
C103        C  0.05650969  0.48900720  0.14660394    -0.18900
C104        C  0.00406527  0.47860053  0.14412583    -0.18900
C105        C  0.07939675  0.44095195  0.83308874    -0.18900
C106        C  0.02641650  0.43741897  0.82950633    -0.18900
C107        C  0.19679766  0.52449363  0.01561550    -0.20000
C108        C  0.20155115  0.51329632  0.96366177    -0.20000
C109        C  0.87540299  0.47129102  0.00123407    -0.20000
C110        C  0.87890161  0.46662475  0.94845343    -0.20000
C111        C  0.12641893  0.51342448  0.08298947    -0.15300
C112        C  0.93805537  0.47710389  0.07373212    -0.15300
C113        C  0.95144965  0.46034272  0.88489297    -0.15300
C114        C  0.14299533  0.47719915  0.89594688    -0.15300
H115        H  0.07946078  0.48798666  0.18168442     0.17600
H116        H  0.97952224  0.46791575  0.17707968     0.17600
H117        H  0.10583849  0.42653543  0.80475803     0.17600
H118        H  0.00574702  0.42068467  0.79745557     0.17600
H119        H  0.22691143  0.54169559  0.03895260     0.15900
H120        H  0.23576911  0.52036406  0.93984202     0.15900
H121        H  0.83981099  0.46941290  0.02357543     0.15900
H122        H  0.84619848  0.45908695  0.92363056     0.15900
H123        H  0.03407512  0.50732591  0.02412459     0.29100
H124        H  0.04264970  0.49649878  0.93716495     0.29100
O125        O  0.07280654  0.55645569  0.33212978    -0.72300
O126        O  0.13960185  0.54696239  0.38961128    -0.51200
C127        C  0.12066214  0.55270134  0.34316183     0.81400
O128        O  0.91749057  0.67921997  0.50347630    -0.56900
O129        O  0.85091979  0.61920837  0.50206132    -0.50000
C130        C  0.86982951  0.66541785  0.50689293     0.73400
O131        O  0.08109186  0.66376691  0.45165694    -0.71500
O132        O  0.14488048  0.62280468  0.49012227    -0.52000
C133        C  0.12247084  0.66481827  0.47785473     0.79400
O134        O  0.90314714  0.57239655  0.35623747    -0.56600
O135        O  0.85011535  0.52270287  0.40614772    -0.49700
C136        C  0.86842247  0.53726845  0.36135009     0.76000
Zr137      Zr  0.99145511  0.55518795  0.37711260     2.54700
O138        O  0.99636752  0.62899879  0.31668954    -0.77200
O139        O  0.97739657  0.49533921  0.30725647    -0.90600
Zr140      Zr  0.00163630  0.64373773  0.49721027     2.64700
O141        O  0.00549255  0.73531064  0.47385015    -0.95600
O142        O  0.02527866  0.68017250  0.58020656    -0.77600
O143        O  0.04747298  0.59992553  0.43311126    -0.81000
O144        O  0.94443610  0.60076789  0.44004231    -2.15700
O145        O  0.90976064  0.39353246  0.47118468    -0.64400
O146        O  0.85039826  0.45077283  0.49768171    -0.48900
C147        C  0.86540388  0.40484142  0.48842381     0.74400
O148        O  0.08808776  0.52135653  0.62420201    -0.57300
O149        O  0.14918814  0.52624419  0.55947386    -0.49300
C150        C  0.13458329  0.52079393  0.60762512     0.76200
O151        O  0.92013592  0.56079372  0.61029145    -0.68700
O152        O  0.85367222  0.52060334  0.57465867    -0.47300
C153        C  0.88052800  0.53107532  0.61478398     0.77600
O154        O  0.07522565  0.39532714  0.47623650    -0.64000
O155        O  0.14122176  0.45542765  0.48133006    -0.51200
C156        C  0.12248417  0.40889303  0.48198826     0.76000
Zr157      Zr  0.99348732  0.43456774  0.47115946     2.77500
O158        O  0.98539538  0.36044528  0.53130191    -0.94800
O159        O  0.99472045  0.38410995  0.39309304    -0.75600
Zr160      Zr  0.00196813  0.52413446  0.59119576     2.70100
O161        O  0.98239966  0.44404707  0.63986331    -0.76800
O162        O  0.01009253  0.55548573  0.67909804    -0.95900
Zr163      Zr  0.10059260  0.53921592  0.47799146     2.21500
Zr164      Zr  0.89318698  0.53707294  0.48947774     2.11100
O165        O  0.94726378  0.47729573  0.53537757    -2.44600
O166        O  0.04842530  0.47910663  0.52862386    -0.76600
O167        O  0.94139767  0.49307090  0.42593917    -0.68800
O168        O  0.05434996  0.58485413  0.54282488    -2.29800
O169        O  0.04413952  0.49400423  0.42029099    -2.26000
O170        O  0.95019940  0.58369682  0.54604169    -0.70600
H171        H  0.92324502  0.62649837  0.42364578     0.81400
H172        H  0.07802460  0.60281919  0.56538227     0.82500
H173        H  0.92719484  0.45254751  0.55646931     0.84700
H174        H  0.06367203  0.47518243  0.39557371     0.82300
H175        H  0.99596574  0.67024125  0.60366523     0.45400
H176        H  0.99917476  0.59159096  0.67644321     0.44400
H177        H  0.01189261  0.44006855  0.66389954     0.44000
H178        H  0.99340988  0.33047040  0.51025255     0.42000
H179        H  0.99298766  0.34792648  0.40620075     0.45100
H180        H  0.00578898  0.47081076  0.31064227     0.39900
H181        H  0.01769855  0.65497887  0.33485650     0.46000
H182        H  0.98291079  0.73902375  0.44307206     0.42400
H183        H  0.01489765  0.36398339  0.55543411     0.47300
H184        H  0.98557432  0.51569607  0.27494909     0.46100
H185        H  0.98711189  0.75245743  0.50203893     0.46200
H186        H  0.98217639  0.53712916  0.69928525     0.46500
N187        N  0.48112489  0.77386438  0.20637516    -0.00500
C188        C  0.46382258  0.77122011  0.25657448     0.02100
C189        C  0.44678690  0.72225361  0.27110606    -0.20800
C190        C  0.45540685  0.69238122  0.22956987    -0.21000
C191        C  0.47724874  0.72426110  0.19116111     0.02000
H192        H  0.43358852  0.70888195  0.30932053     0.15800
H193        H  0.45086224  0.65090909  0.22915996     0.15800
N194        N  0.47386579  0.18741132  0.16654162    -0.00500
C195        C  0.44251069  0.17261670  0.20741114     0.02100
C196        C  0.40365494  0.20721690  0.21333840    -0.20800
C197        C  0.41468325  0.24782230  0.17996861    -0.21000
C198        C  0.45928212  0.23625424  0.15405308     0.02000
H199        H  0.37719990  0.20841263  0.24602042     0.15800
H200        H  0.39779867  0.28530487  0.18177041     0.15800
N201        N  0.54192470  0.16661896  0.78184248    -0.00500
C202        C  0.57556698  0.20523011  0.79417782     0.02100
C203        C  0.61017744  0.21551037  0.75402116    -0.20800
C204        C  0.59519464  0.18496164  0.71415437    -0.21000
C205        C  0.55207626  0.15690223  0.73139629     0.02000
H206        H  0.63704249  0.24814006  0.75037397     0.15800
H207        H  0.60869616  0.18949592  0.67430797     0.15800
N208        N  0.47596828  0.76746309  0.79994248    -0.00500
C209        C  0.46353417  0.71640727  0.80664110     0.02100
C210        C  0.42389147  0.70235998  0.77387335    -0.20800
C211        C  0.41353106  0.74479051  0.74351319    -0.21000
C212        C  0.44667838  0.78363630  0.75912518     0.02000
H213        H  0.40954378  0.66362860  0.76724855     0.15800
H214        H  0.38969998  0.74513045  0.70901943     0.15800
N215        N  0.50480721  0.96754148  0.07498834    -0.33600
N216        N  0.50011185  0.89078724  0.99187042    -0.54200
N217        N  0.51149132  0.97390050  0.91212897    -0.33600
N218        N  0.51064256  0.05140092  0.99369926    -0.54200
C219        C  0.48991262  0.92409898  0.10307847     0.30000
C220        C  0.49265850  0.00930841  0.10308477     0.30000
C221        C  0.50035727  0.93367449  0.88103271     0.29900
C222        C  0.51357175  0.01784412  0.88187334     0.29900
C223        C  0.50133859  0.85826914  0.03428795     0.38600
C224        C  0.50094245  0.86149982  0.94879495     0.38600
C225        C  0.51884651  0.07867662  0.03742474     0.38600
C226        C  0.52929103  0.08090120  0.95271151     0.38600
C227        C  0.46845016  0.93866253  0.14965906    -0.18900
C228        C  0.47010124  0.99173268  0.14967148    -0.18900
C229        C  0.49613222  0.95257606  0.83017859    -0.18900
C230        C  0.50516607  0.00498973  0.83059611    -0.18900
C231        C  0.50417830  0.80816095  0.01765824    -0.20000
C232        C  0.50271470  0.81012686  0.96425733    -0.20000
C233        C  0.54337169  0.12527918  0.02391932    -0.20000
C234        C  0.54920154  0.12703456  0.97077955    -0.20000
C235        C  0.49371940  0.87171033  0.08747267    -0.15300
C236        C  0.50302562  0.06272912  0.08906223    -0.15300
C237        C  0.52664263  0.06845336  0.89890680    -0.15300
C238        C  0.49633794  0.88008643  0.89599281    -0.15300
H239        H  0.45168781  0.91386432  0.18016516     0.17600
H240        H  0.45527902  0.01455397  0.18051238     0.17600
H241        H  0.48899399  0.93076925  0.79566896     0.17600
H242        H  0.50612718  0.03012688  0.79639183     0.17600
H243        H  0.50547851  0.77315752  0.04136032     0.15900
H244        H  0.50227292  0.77687728  0.94023987     0.15900
H245        H  0.55688408  0.15488209  0.04954918     0.15900
H246        H  0.56655010  0.15888164  0.94824036     0.15900
H247        H  0.52551572  0.96847390  0.04023879     0.29100
H248        H  0.52111511  0.97138641  0.95111743     0.29100
N249        N  0.17390036  0.84027741  0.53662330    -0.00500
C250        C  0.15400792  0.79509328  0.55682856     0.02100
C251        C  0.17675014  0.78352189  0.60398669    -0.20800
C252        C  0.21541174  0.81975217  0.61047678    -0.21000
C253        C  0.21508106  0.85200985  0.56690777     0.02000
H254        H  0.17335040  0.74717990  0.62557077     0.15800
H255        H  0.24688949  0.81588941  0.63781008     0.15800
N256        N  0.77258595  0.23533924  0.52727657    -0.00500
C257        C  0.78642810  0.28063392  0.54912211     0.02100
C258        C  0.74772848  0.29639479  0.58155650    -0.20800
C259        C  0.70694358  0.26248873  0.57652934    -0.21000
C260        C  0.72233860  0.22678538  0.54177362     0.02000
H261        H  0.74569612  0.33345750  0.59933146     0.15800
H262        H  0.66802472  0.26764297  0.59073659     0.15800
N263        N  0.18894200  0.23836222  0.53752045    -0.00500
C264        C  0.23243692  0.21863572  0.55841087     0.02100
C265        C  0.25880437  0.25505174  0.58681915    -0.20800
C266        C  0.23351446  0.30000800  0.57961084    -0.21000
C267        C  0.19214057  0.28906330  0.54796825     0.02000
H268        H  0.29734303  0.25190928  0.60267999     0.15800
H269        H  0.24795779  0.33773117  0.59000578     0.15800
N270        N  0.78552519  0.82718686  0.56065147    -0.00500
C271        C  0.79984626  0.77969384  0.57686646     0.02100
C272        C  0.77057177  0.76216724  0.61895456    -0.20800
C273        C  0.73434941  0.79837060  0.62677409    -0.21000
C274        C  0.74220371  0.83626337  0.58853359     0.02000
H275        H  0.76985373  0.72370857  0.63629714     0.15800
H276        H  0.69987856  0.79217314  0.65048307     0.15800
N277        N  0.97065794  0.95978459  0.52475601    -0.33600
N278        N  0.05825772  0.03651141  0.52083573    -0.54200
N279        N  0.98387530  0.12152546  0.52056173    -0.33600
N280        N  0.89600090  0.04493038  0.52651006    -0.54200
C281        C  0.01145594  0.92868678  0.53399090     0.30000
C282        C  0.92631664  0.93245790  0.53793218     0.30000
C283        C  0.02924750  0.14952516  0.52455660     0.29900
C284        C  0.94359117  0.15397776  0.52462947     0.29900
C285        C  0.08611405  0.99287072  0.52157239     0.38600
C286        C  0.09267633  0.07708283  0.52133378     0.38600
C287        C  0.86204572  0.00407719  0.53330061     0.38600
C288        C  0.86825869  0.08878149  0.52757556     0.38600
C289        C  0.99235008  0.88076286  0.55123068    -0.18900
C290        C  0.93956925  0.88333086  0.55442585    -0.18900
C291        C  0.01734280  0.20063391  0.53016167    -0.18900
C292        C  0.96416901  0.20353757  0.52944673    -0.18900
C293        C  0.13843598  0.00605888  0.52156533    -0.20000
C294        C  0.14256551  0.05873312  0.52115811    -0.20000
C295        C  0.81253479  0.02237118  0.53834915    -0.20000
C296        C  0.81644987  0.07516179  0.53537053    -0.20000
C297        C  0.06572445  0.94150296  0.52934754    -0.15300
C298        C  0.87430858  0.95056512  0.53861774    -0.15300
C299        C  0.88880648  0.14094953  0.52603571    -0.15300
C300        C  0.08102277  0.13038003  0.52552852    -0.15300
H301        H  0.01408724  0.84727878  0.56215517     0.17600
H302        H  0.91444877  0.85245280  0.56951916     0.17600
H303        H  0.04386458  0.23293471  0.53510217     0.17600
H304        H  0.94327441  0.23861686  0.53317922     0.17600
H305        H  0.17070733  0.98065276  0.52384336     0.15900
H306        H  0.17862356  0.08086610  0.52201776     0.15900
H307        H  0.77699001  0.00018270  0.54509672     0.15900
H308        H  0.78438730  0.10016743  0.54055287     0.15900
H309        H  0.97283990  0.99676541  0.50860384     0.29100
H310        H  0.98053093  0.08238118  0.51550379     0.29100
O311        O  0.36047933  0.91456993  0.46648118    -0.72300
O312        O  0.39785268  0.85756258  0.51770637    -0.51200
C313        C  0.35681483  0.87804798  0.50006008     0.81400
O314        O  0.51053984  0.08250834  0.35637503    -0.56900
O315        O  0.46605098  0.14473565  0.39263014    -0.50000
C316        C  0.48488428  0.12330589  0.35236882     0.73400
O317        O  0.47448185  0.91686052  0.35622816    -0.71500
O318        O  0.47795658  0.85607212  0.42244891    -0.52000
C319        C  0.47594191  0.87061275  0.37385319     0.79400
O320        O  0.32771430  0.08106523  0.50027243    -0.56600
O321        O  0.38663863  0.14850361  0.49418784    -0.49700
C322        C  0.34040692  0.12876692  0.50049277     0.76000
Zr323      Zr  0.36883372  0.00023588  0.49722388     2.54700
O324        O  0.28875184  0.99976036  0.44776260    -0.77200
O325        O  0.31473127  0.97916913  0.57313645    -0.90600
Zr326      Zr  0.47016705  0.00264473  0.38597265     2.64700
O327        O  0.39071362  0.01545447  0.33736012    -0.95600
O328        O  0.50154855  0.99534234  0.29712867    -0.77600
O329        O  0.42295805  0.95017980  0.44643282    -0.81000
O330        O  0.41570685  0.05391820  0.43624364    -2.15700
O331        O  0.43513133  0.09212316  0.60274305    -0.64400
O332        O  0.47769082  0.15726936  0.56459564    -0.48900
C333        C  0.46261630  0.13288579  0.60622916     0.74400
O334        O  0.62096001  0.93992817  0.52058424    -0.57300
O335        O  0.56705243  0.86905108  0.51845789    -0.49300
C336        C  0.61129938  0.89196332  0.52653952     0.76200
O337        O  0.61673002  0.09882018  0.48754476    -0.68700
O338        O  0.55534660  0.16014851  0.48215175    -0.47300
C339        C  0.60255796  0.14525426  0.48626804     0.77600
O340        O  0.47036982  0.93221585  0.64761804    -0.64000
O341        O  0.48016175  0.86591734  0.59251472    -0.51200
C342        C  0.47425506  0.88455896  0.63820310     0.76000
Zr343      Zr  0.48000553  0.01307786  0.59992840     2.77500
O344        O  0.56015211  0.03474034  0.64478983    -0.94800
O345        O  0.45134588  0.02288504  0.68932468    -0.75600
Zr346      Zr  0.58082691  0.01355390  0.48456202     2.70100
O347        O  0.67059078  0.02212643  0.51206641    -0.76800
O348        O  0.62206489  0.00200955  0.40046467    -0.95900
Zr349      Zr  0.48042614  0.90438401  0.50343159     2.21500
Zr350      Zr  0.47213153  0.11097094  0.48335024     2.11100
O351        O  0.53037265  0.06418538  0.53947004    -2.44600
O352        O  0.53419435  0.96354936  0.54864870    -0.76600
O353        O  0.42271839  0.05681881  0.54349999    -0.68800
O354        O  0.52866475  0.95493280  0.43884643    -2.29800
O355        O  0.42473064  0.95557744  0.55518957    -2.26000
O356        O  0.52547775  0.06010064  0.43036390    -0.70600
H357        H  0.39234054  0.07325353  0.41459362     0.81400
H358        H  0.55029806  0.93346579  0.41854138     0.82500
H359        H  0.55197996  0.08742614  0.55900733     0.84700
H360        H  0.40375319  0.93474743  0.57921942     0.82300
H361        H  0.53752901  0.98384852  0.30081343     0.45400
H362        H  0.60194778  0.02264154  0.37520475     0.44400
H363        H  0.66883017  0.03022012  0.54938803     0.44000
H364        H  0.55544376  0.01967956  0.68037643     0.42000
H365        H  0.41372470  0.01477148  0.68874734     0.45100
H366        H  0.27909758  0.98620602  0.56162947     0.39900
H367        H  0.26910478  0.96867147  0.46060704     0.46000
H368        H  0.40224216  0.03086174  0.30342156     0.42400
H369        H  0.58638495  0.01318228  0.62874033     0.47300
H370        H  0.32320832  0.00668151  0.59769101     0.46100
H371        H  0.37820366  0.98030703  0.32930891     0.46200
H372        H  0.65572464  0.02089139  0.40267996     0.46500
C373        C  0.69629654  0.85441421  0.56367463    -0.10300
C374        C  0.65494021  0.86490458  0.54540706    -0.11900
C375        C  0.82072492  0.86533067  0.53518925    -0.13500
C376        C  0.83015793  0.91281601  0.55489579    -0.28600
H377        H  0.84568015  0.85279937  0.50429379     0.15600
H378        H  0.80562231  0.92412860  0.58665619     0.16100
C379        C  0.26334924  0.18308826  0.53172345    -0.10300
C380        C  0.29861849  0.16080259  0.51299401    -0.11900
C381        C  0.14415555  0.20993179  0.51713593    -0.13500
C382        C  0.12664570  0.16517236  0.54083878    -0.28600
H383        H  0.12250789  0.22666304  0.48512652     0.15600
H384        H  0.14918970  0.15088487  0.57345795     0.16100
C385        C  0.68355894  0.20008740  0.51223359    -0.10300
C386        C  0.64448819  0.18085799  0.49506027    -0.11900
C387        C  0.80740719  0.19575829  0.50988068    -0.13500
C388        C  0.85236556  0.18525315  0.53544113    -0.28600
H389        H  0.79437904  0.17053954  0.47947697     0.15600
H390        H  0.86330987  0.21058931  0.56651195     0.16100
C391        C  0.26460409  0.86485411  0.54347223    -0.10300
C392        C  0.30725055  0.86813937  0.52419292    -0.11900
C393        C  0.14108348  0.88060343  0.51592904    -0.13500
C394        C  0.10248517  0.89939217  0.54526178    -0.28600
H395        H  0.14923046  0.89730792  0.47747167     0.15600
H396        H  0.09621812  0.88175920  0.58368611     0.16100
C397        C  0.46209724  0.82372030  0.72186499    -0.10300
C398        C  0.47003703  0.85048576  0.68325247    -0.11900
C399        C  0.50075184  0.80012536  0.83841672    -0.13500
C400        C  0.47809259  0.84374837  0.85409460    -0.28600
H401        H  0.53551831  0.78719277  0.85757678     0.15600
H402        H  0.44309507  0.85486415  0.83406344     0.16100
C403        C  0.48684326  0.14223901  0.65523046    -0.10300
C404        C  0.51272821  0.14506560  0.69399074    -0.11900
C405        C  0.54534616  0.10966904  0.85959643    -0.13500
C406        C  0.51808782  0.12935027  0.81882289    -0.28600
H407        H  0.58416481  0.12535926  0.86547150     0.15600
H408        H  0.47949604  0.11406685  0.81111290     0.16100
C409        C  0.46283888  0.15199485  0.25564101    -0.10300
C410        C  0.47441263  0.14181695  0.30024209    -0.11900
C411        C  0.48407323  0.15224577  0.12445512    -0.13500
C412        C  0.49820437  0.10236716  0.13186825    -0.28600
H413        H  0.47590399  0.16589160  0.08514627     0.15600
H414        H  0.50434647  0.08924082  0.17172942     0.16100
C415        C  0.47088953  0.80901332  0.29531421    -0.10300
C416        C  0.47454328  0.83387534  0.33384731    -0.11900
C417        C  0.49684744  0.81979595  0.17525565    -0.13500
C418        C  0.48028731  0.82687541  0.12543196    -0.28600
H419        H  0.51983808  0.84985640  0.19322538     0.15600
H420        H  0.45572072  0.79629388  0.11042035     0.16100
C421        C  0.83384890  0.36065795  0.50334378    -0.10300
C422        C  0.81567385  0.32085492  0.52173980    -0.11900
C423        C  0.83771035  0.70615458  0.52175825    -0.10300
C424        C  0.82167267  0.74294748  0.54326993    -0.11900
C425        C  0.15412683  0.36724317  0.49609986    -0.10300
C426        C  0.16983599  0.32914250  0.51725112    -0.11900
C427        C  0.14223569  0.75242209  0.52388350    -0.10300
C428        C  0.13707707  0.71271843  0.50097809    -0.11900
C429        C  0.87179421  0.47194653  0.69927633    -0.10300
C430        C  0.87380775  0.50117535  0.66207206    -0.11900
C431        C  0.87176023  0.46762611  0.82582316    -0.13500
C432        C  0.91453481  0.44293636  0.84270577    -0.28600
H433        H  0.86092623  0.50322482  0.84319684     0.15600
H434        H  0.92333938  0.40750219  0.82386499     0.16100
C435        C  0.19118894  0.48912997  0.68506086    -0.10300
C436        C  0.17085804  0.50921499  0.64785681    -0.11900
C437        C  0.19227885  0.48180346  0.80827447    -0.13500
C438        C  0.18867052  0.46675184  0.85974121    -0.28600
H439        H  0.16247563  0.50646153  0.79287974     0.15600
H440        H  0.21877436  0.44298398  0.87590687     0.16100
C441        C  0.85905269  0.48029375  0.27948296    -0.10300
C442        C  0.85881749  0.50690693  0.31691595    -0.11900
C443        C  0.89455351  0.46139243  0.11136460    -0.13500
C444        C  0.87955066  0.48732456  0.15367744    -0.28600
H445        H  0.87280730  0.42644251  0.10253608     0.15600
H446        H  0.90109299  0.52189408  0.16404402     0.16100
C447        C  0.17777247  0.56522947  0.25832047    -0.10300
C448        C  0.15412920  0.55640559  0.29838570    -0.11900
C449        C  0.20591185  0.52536376  0.14277968    -0.13500
C450        C  0.15778654  0.53780591  0.12637023    -0.28600
H451        H  0.22619192  0.49587942  0.12267836     0.15600
H452        H  0.13847560  0.56745792  0.14721745     0.16100
C453        C  0.49531743  0.27862710  0.14141773    -0.10300
C454        C  0.51833317  0.31974947  0.13543540    -0.11900
C455        C  0.50487104  0.70177375  0.14961708    -0.10300
C456        C  0.52189605  0.66872529  0.12326961    -0.11900
C457        C  0.52082485  0.63710339  0.82951391    -0.10300
C458        C  0.49839803  0.67704197  0.82355267    -0.11900
C459        C  0.70658913  0.44426245  0.81987243    -0.10300
C460        C  0.74939927  0.43075919  0.80878346    -0.11900
C461        C  0.54936710  0.28825928  0.84232935    -0.10300
C462        C  0.55989908  0.24782885  0.82399596    -0.11900
C463        C  0.35450207  0.44571798  0.82533881    -0.10300
C464        C  0.31158313  0.43812236  0.80867691    -0.11900
C465        C  0.36382556  0.52032604  0.14304489    -0.10300
C466        C  0.32540311  0.54000694  0.15829355    -0.11900
C467        C  0.71032287  0.47821710  0.14265911    -0.10300
C468        C  0.75187165  0.46313605  0.15641242    -0.11900
loop_ 
_geom_bond_atom_site_label_1 
_geom_bond_atom_site_label_2 
_geom_bond_distance 
_geom_bond_site_symmetry_2 
_ccdc_geom_bond_type 
O1          Zr13   2.392   1_554  S
O1            C3   1.265       .  A
O2          Zr39   2.468       .  S
O2            C3   1.286       .  A
C3          C454   1.448       .  S
O4          Zr16   2.376       .  S
O4            C6   1.273       .  A
O5          Zr40   2.477       .  S
O5            C6   1.297       .  A
C6          C459   1.429       .  S
O7          Zr16   2.375   1_554  S
O7            C9   1.272       .  A
O8          Zr39   2.468       .  S
O8            C9   1.295       .  A
C9          C467   1.427       .  S
O10         Zr13   2.397       .  S
O10          C12   1.277       .  A
O11         Zr40   2.465       .  S
O11          C12   1.295       .  A
C12         C461   1.430       .  S
Zr13         O14   2.436   1_556  S
Zr13         O15   2.436   1_556  S
Zr13         O19   2.372   1_556  S
Zr13         O20   2.362       .  S
Zr13         O43   2.361       .  S
Zr13         O45   2.371   1_556  S
O14          H57   0.990       .  S
O15          H56   0.990       .  S
O15          H60   0.990   1_554  S
Zr16         O17   2.440       .  S
Zr16         O18   2.435       .  S
Zr16         O20   2.370       .  S
Zr16         O19   2.355   1_556  S
Zr16         O44   2.363   1_556  S
Zr16         O46   2.334       .  S
O17          H58   0.990       .  S
O17          H61   0.990   1_556  S
O18          H51   0.990       .  S
O19         Zr39   2.397       .  S
O20         Zr40   2.394       .  S
O20          H47   0.964       .  S
O21         Zr33   2.364       .  S
O21          C23   1.270       .  A
O22         Zr40   2.483       .  S
O22          C23   1.298       .  A
C23         C463   1.426       .  S
O24         Zr36   2.406   1_554  S
O24          C26   1.278       .  A
O25         Zr39   2.458       .  S
O25          C26   1.294       .  A
C26         C456   1.432       .  S
O27         Zr36   2.393       .  S
O27          C29   1.266       .  A
O28         Zr40   2.469       .  S
O28          C29   1.286       .  A
C29         C457   1.443       .  S
O30         Zr33   2.378   1_554  S
O30          C32   1.274       .  A
O31         Zr39   2.460       .  S
O31          C32   1.294       .  A
C32         C465   1.422       .  S
Zr33         O34   2.438       .  S
Zr33         O35   2.435       .  S
Zr33         O41   2.360       .  S
Zr33         O42   2.354   1_556  S
Zr33         O45   2.352   1_556  S
Zr33         O43   2.365       .  S
O34          H54   0.990       .  S
O34          H59   0.990       .  S
O35          H55   0.990       .  S
Zr36         O37   2.436       .  S
Zr36         O38   2.436       .  S
Zr36         O42   2.357   1_556  S
Zr36         O41   2.382       .  S
Zr36         O46   2.374       .  S
Zr36         O44   2.373   1_556  S
O37          H53   0.990       .  S
O38          H52   0.990       .  S
O38          H62   0.990       .  S
Zr39         O42   2.381       .  S
Zr39         O44   2.402       .  S
Zr39         O45   2.414       .  S
Zr40         O41   2.418       .  S
Zr40         O43   2.389       .  S
Zr40         O46   2.407       .  S
O41          H49   0.965       .  S
O44          H48   0.966       .  S
O45          H50   0.966       .  S
N63          C67   1.358       .  A
N63          C64   1.363       .  A
N63         C449   1.466       .  S
C64         C447   1.439       .  S
C64          C65   1.382       .  A
C65          C66   1.366       .  A
C65          H68   1.083       .  S
C66          C67   1.375       .  A
C66          H69   1.083       .  S
C67         C466   1.431       .  S
N70          C74   1.355       .  A
N70          C71   1.352       .  A
N70         C444   1.460       .  S
C71         C441   1.434       .  S
C71          C72   1.380       .  A
C72          C73   1.368       .  A
C72          H75   1.083       .  S
C73          C74   1.379       .  A
C73          H76   1.083       .  S
C74         C468   1.439       .  S
N77          C81   1.363       .  A
N77          C78   1.365       .  A
N77         C437   1.472       .  S
C78         C464   1.434       .  S
C78          C79   1.381       .  A
C79          C80   1.362       .  A
C79          H82   1.083       .  S
C80          C81   1.373       .  A
C80          H83   1.082       .  S
C81         C435   1.438       .  S
N84          C88   1.350       .  A
N84          C85   1.356       .  A
N84         C431   1.456       .  S
C85         C460   1.441       .  S
C85          C86   1.379       .  A
C86          C87   1.370       .  A
C86          H89   1.083       .  S
C87          C88   1.379       .  A
C87          H90   1.083       .  S
C88         C429   1.434       .  S
N91          C96   1.366   1_455  A
N91          C95   1.361       .  A
N91         H123   1.037       .  S
N92          C99   1.367   1_556  A
N92         C100   1.366       .  A
N93          C98   1.366       .  A
N93          C97   1.367       .  A
N93         H124   1.038       .  S
N94         C101   1.360   1_556  A
N94         C102   1.361       .  A
C95         C103   1.388       .  A
C95         C111   1.431       .  A
C96         C112   1.433       .  A
C96         C104   1.388   1_655  A
C97         C105   1.387       .  A
C97         C114   1.439       .  A
C98         C113   1.440   1_455  A
C98         C106   1.389       .  A
C99         C111   1.441       .  A
C99         C107   1.388       .  A
C100        C114   1.440       .  A
C100        C108   1.386       .  A
C101        C109   1.385       .  A
C101        C112   1.428       .  A
C102        C110   1.389       .  A
C102        C113   1.430       .  A
C103        C104   1.378       .  A
C103        H115   1.083       .  S
C104        H116   1.081   1_455  S
C105        C106   1.375       .  A
C105        H117   1.081       .  S
C106        H118   1.081       .  S
C107        C108   1.383   1_554  A
C107        H119   1.081       .  S
C108        H120   1.082       .  S
C109        C110   1.370   1_554  A
C109        H121   1.082       .  S
C110        H122   1.079       .  S
C111        C450   1.526       .  S
C112        C443   1.520       .  S
C113        C432   1.520       .  S
C114        C438   1.537       .  S
O125       Zr137   2.396   1_455  S
O125        C127   1.277       .  A
O126       Zr163   2.483       .  S
O126        C127   1.300       .  A
C127        C448   1.437       .  S
O128       Zr140   2.397   1_655  S
O128        C130   1.276       .  A
O129       Zr164   2.460       .  S
O129        C130   1.295       .  A
C130        C423   1.427       .  S
O131       Zr140   2.397       .  S
O131        C133   1.268       .  A
O132       Zr163   2.459       .  S
O132        C133   1.285       .  A
C133        C428   1.440       .  S
O134       Zr137   2.401       .  S
O134        C136   1.266       .  A
O135       Zr164   2.455       .  S
O135        C136   1.286       .  A
C136        C442   1.429       .  S
Zr137       O138   2.434       .  S
Zr137       O139   2.437       .  S
Zr137       O143   2.357   1_655  S
Zr137       O144   2.387       .  S
Zr137       O167   2.367       .  S
Zr137       O169   2.379   1_655  S
O138        H181   0.990   1_655  S
O139        H180   0.990   1_655  S
O139        H184   0.990       .  S
Zr140       O141   2.440       .  S
Zr140       O142   2.437       .  S
Zr140       O144   2.373   1_455  S
Zr140       O143   2.368       .  S
Zr140       O168   2.369       .  S
Zr140       O170   2.352   1_455  S
O141        H182   0.990   1_455  S
O141        H185   0.990   1_455  S
O142        H175   0.990   1_455  S
O143       Zr163   2.398       .  S
O144       Zr164   2.418       .  S
O144        H171   0.966       .  S
O145       Zr157   2.387       .  S
O145        C147   1.274       .  A
O146       Zr164   2.478       .  S
O146        C147   1.297       .  A
C147        C421   1.432       .  S
O148       Zr160   2.390       .  S
O148        C150   1.275       .  A
O149       Zr163   2.469       .  S
O149        C150   1.296       .  A
C150        C436   1.431       .  S
O151       Zr160   2.403   1_655  S
O151        C153   1.268       .  A
O152       Zr164   2.434       .  S
O152        C153   1.279       .  A
C153        C430   1.431       .  S
O154       Zr157   2.378   1_455  S
O154        C156   1.273       .  A
O155       Zr163   2.449       .  S
O155        C156   1.291       .  A
C156        C425   1.417       .  S
Zr157       O158   2.439       .  S
Zr157       O159   2.435       .  S
Zr157       O165   2.361       .  S
Zr157       O166   2.362   1_655  S
Zr157       O169   2.358   1_655  S
Zr157       O167   2.348       .  S
O158        H178   0.990       .  S
O158        H183   0.990   1_655  S
O159        H179   0.990       .  S
Zr160       O161   2.437   1_455  S
Zr160       O162   2.436       .  S
Zr160       O166   2.365       .  S
Zr160       O165   2.362   1_455  S
Zr160       O170   2.361   1_455  S
Zr160       O168   2.370       .  S
O161        H177   0.990   1_655  S
O162        H176   0.990   1_455  S
O162        H186   0.990   1_455  S
Zr163       O166   2.387       .  S
Zr163       O168   2.412       .  S
Zr163       O169   2.398       .  S
Zr164       O165   2.409       .  S
Zr164       O167   2.392       .  S
Zr164       O170   2.407       .  S
O165        H173   0.967       .  S
O168        H172   0.966       .  S
O169        H174   0.965       .  S
N187        C191   1.362       .  A
N187        C188   1.364       .  A
N187        C417   1.464       .  S
C188        C415   1.431       .  S
C188        C189   1.377       .  A
C189        C190   1.363       .  A
C189        H192   1.083       .  S
C190        C191   1.378       .  A
C190        H193   1.083       .  S
C191        C455   1.433       .  S
N194        C198   1.366       .  A
N194        C195   1.364       .  A
N194        C411   1.468       .  S
C195        C409   1.444       .  S
C195        C196   1.381       .  A
C196        C197   1.363       .  A
C196        H199   1.083       .  S
C197        C198   1.376       .  A
C197        H200   1.083       .  S
C198        C453   1.451       .  S
N201        C205   1.356       .  A
N201        C202   1.356       .  A
N201        C406   1.459       .  S
C202        C462   1.435       .  S
C202        C203   1.379       .  A
C203        C204   1.368       .  A
C203        H206   1.083       .  S
C204        C205   1.379       .  A
C204        H207   1.083       .  S
C205        C404   1.437       .  S
N208        C212   1.361       .  A
N208        C209   1.364       .  A
N208        C399   1.463       .  S
C209        C458   1.444       .  S
C209        C210   1.379       .  A
C210        C211   1.367       .  A
C210        H213   1.083       .  S
C211        C212   1.377       .  A
C211        H214   1.083       .  S
C212        C397   1.441       .  S
N215        C220   1.368   1_565  A
N215        C219   1.368       .  A
N215        H247   1.039       .  S
N216        C223   1.361   1_556  A
N216        C224   1.365       .  A
N217        C222   1.363   1_565  A
N217        C221   1.363       .  A
N217        H248   1.035       .  S
N218        C225   1.363   1_556  A
N218        C226   1.363       .  A
C219        C227   1.387       .  A
C219        C235   1.440       .  A
C220        C236   1.443       .  A
C220        C228   1.389   1_545  A
C221        C229   1.389       .  A
C221        C238   1.436       .  A
C222        C237   1.433       .  A
C222        C230   1.388       .  A
C223        C235   1.437       .  A
C223        C231   1.390       .  A
C224        C238   1.434       .  A
C224        C232   1.386       .  A
C225        C233   1.386       .  A
C225        C236   1.433       .  A
C226        C234   1.387       .  A
C226        C237   1.433       .  A
C227        C228   1.381       .  A
C227        H239   1.081       .  S
C228        H240   1.082   1_565  S
C229        C230   1.378   1_565  A
C229        H241   1.082       .  S
C230        H242   1.080       .  S
C231        C232   1.374   1_554  A
C231        H243   1.082       .  S
C232        H244   1.079       .  S
C233        C234   1.374   1_554  A
C233        H245   1.081       .  S
C234        H246   1.082       .  S
C235        C418   1.529       .  S
C236        C412   1.540       .  S
C237        C405   1.518       .  S
C238        C400   1.524       .  S
N249        C253   1.356       .  A
N249        C250   1.357       .  A
N249        C393   1.459       .  S
C250        C427   1.445       .  S
C250        C251   1.379       .  A
C251        C252   1.369       .  A
C251        H254   1.083       .  S
C252        C253   1.380       .  A
C252        H255   1.083       .  S
C253        C391   1.439       .  S
N256        C260   1.361       .  A
N256        C257   1.361       .  A
N256        C387   1.468       .  S
C257        C422   1.438       .  S
C257        C258   1.380       .  A
C258        C259   1.365       .  A
C258        H261   1.083       .  S
C259        C260   1.376       .  A
C259        H262   1.083       .  S
C260        C385   1.437       .  S
N263        C267   1.356       .  A
N263        C264   1.357       .  A
N263        C381   1.464       .  S
C264        C379   1.431       .  S
C264        C265   1.381       .  A
C265        C266   1.366       .  A
C265        H268   1.083       .  S
C266        C267   1.376       .  A
C266        H269   1.082       .  S
C267        C426   1.426       .  S
N270        C274   1.358       .  A
N270        C271   1.355       .  A
N270        C375   1.465       .  S
C271        C424   1.436       .  S
C271        C272   1.377       .  A
C272        C273   1.367       .  A
C272        H275   1.083       .  S
C273        C274   1.381       .  A
C273        H276   1.083       .  S
C274        C373   1.437       .  S
N277        C282   1.368       .  A
N277        C281   1.366   1_655  A
N277        H309   1.037       .  S
N278        C285   1.363   1_545  A
N278        C286   1.362       .  A
N279        C284   1.367       .  A
N279        C283   1.369   1_655  A
N279        H310   1.033       .  S
N280        C287   1.366       .  A
N280        C288   1.367       .  A
C281        C289   1.387   1_455  A
C281        C297   1.437       .  A
C282        C298   1.439       .  A
C282        C290   1.388       .  A
C283        C291   1.387       .  A
C283        C300   1.443       .  A
C284        C299   1.448       .  A
C284        C292   1.391       .  A
C285        C297   1.431       .  A
C285        C293   1.387   1_565  A
C286        C300   1.436       .  A
C286        C294   1.390       .  A
C287        C295   1.387       .  A
C287        C298   1.441   1_545  A
C288        C296   1.388       .  A
C288        C299   1.443       .  A
C289        C290   1.371       .  A
C289        H301   1.082   1_655  S
C290        H302   1.080       .  S
C291        C292   1.380   1_455  A
C291        H303   1.081       .  S
C292        H304   1.082       .  S
C293        C294   1.372       .  A
C293        H305   1.081   1_545  S
C294        H306   1.083       .  S
C295        C296   1.375       .  A
C295        H307   1.082       .  S
C296        H308   1.080       .  S
C297        C394   1.520       .  S
C298        C376   1.533       .  S
C299        C388   1.536       .  S
C300        C382   1.527       .  S
O311       Zr323   2.394   1_565  S
O311        C313   1.266       .  A
O312       Zr349   2.449       .  S
O312        C313   1.281       .  A
C313        C392   1.435       .  S
O314       Zr326   2.400       .  S
O314        C316   1.271       .  A
O315       Zr350   2.475       .  S
O315        C316   1.292       .  A
C316        C410   1.440       .  S
O317       Zr326   2.389   1_565  S
O317        C319   1.275       .  A
O318       Zr349   2.467       .  S
O318        C319   1.297       .  A
C319        C416   1.427       .  S
O320       Zr323   2.390       .  S
O320        C322   1.275       .  A
O321       Zr350   2.463       .  S
O321        C322   1.295       .  A
C322        C380   1.427       .  S
Zr323       O324   2.436   1_545  S
Zr323       O325   2.436   1_545  S
Zr323       O329   2.359   1_545  S
Zr323       O330   2.373       .  S
Zr323       O353   2.353       .  S
Zr323       O355   2.383   1_545  S
O324        H367   0.990       .  S
O325        H366   0.990       .  S
O325        H370   0.990   1_565  S
Zr326       O327   2.437       .  S
Zr326       O328   2.437   1_545  S
Zr326       O330   2.376       .  S
Zr326       O329   2.351   1_545  S
Zr326       O354   2.389   1_545  S
Zr326       O356   2.363       .  S
O327        H368   0.990       .  S
O327        H371   0.990   1_545  S
O328        H361   0.990       .  S
O329       Zr349   2.408       .  S
O330       Zr350   2.410       .  S
O330        H357   0.966       .  S
O331       Zr343   2.396       .  S
O331        C333   1.266       .  A
O332       Zr350   2.448       .  S
O332        C333   1.281       .  A
C333        C403   1.435       .  S
O334       Zr346   2.372   1_565  S
O334        C336   1.271       .  A
O335       Zr349   2.475       .  S
O335        C336   1.296       .  A
C336        C374   1.427       .  S
O337       Zr346   2.385       .  S
O337        C339   1.273       .  A
O338       Zr350   2.472       .  S
O338        C339   1.296       .  A
C339        C386   1.429       .  S
O340       Zr343   2.409   1_565  S
O340        C342   1.279       .  A
O341       Zr349   2.472       .  S
O341        C342   1.296       .  A
C342        C398   1.439       .  S
Zr343       O344   2.438       .  S
Zr343       O345   2.436       .  S
Zr343       O351   2.374       .  S
Zr343       O352   2.359   1_545  S
Zr343       O355   2.368   1_545  S
Zr343       O353   2.370       .  S
O344        H364   0.990       .  S
O344        H369   0.990       .  S
O345        H365   0.990       .  S
Zr346       O347   2.437       .  S
Zr346       O348   2.439       .  S
Zr346       O352   2.371   1_545  S
Zr346       O351   2.375       .  S
Zr346       O356   2.341       .  S
Zr346       O354   2.354   1_545  S
O347        H363   0.991       .  S
O348        H362   0.990       .  S
O348        H372   0.990       .  S
Zr349       O352   2.379       .  S
Zr349       O354   2.408       .  S
Zr349       O355   2.415       .  S
Zr350       O351   2.420       .  S
Zr350       O353   2.399       .  S
Zr350       O356   2.392       .  S
O351        H359   0.966       .  S
O354        H358   0.966       .  S
O355        H360   0.964       .  S
C373        C374   1.206       .  T
C375        C376   1.367       .  D
C375        H377   1.086       .  S
C376        H378   1.086       .  S
C379        C380   1.203       .  T
C381        C382   1.363       .  D
C381        H383   1.085       .  S
C382        H384   1.087       .  S
C385        C386   1.206       .  T
C387        C388   1.369       .  D
C387        H389   1.085       .  S
C388        H390   1.086       .  S
C391        C392   1.207       .  T
C393        C394   1.361       .  D
C393        H395   1.085       .  S
C394        H396   1.086       .  S
C397        C398   1.209       .  T
C399        C400   1.365       .  D
C399        H401   1.085       .  S
C400        H402   1.086       .  S
C403        C404   1.207       .  T
C405        C406   1.362       .  D
C405        H407   1.086       .  S
C406        H408   1.085       .  S
C409        C410   1.210       .  T
C411        C412   1.367       .  D
C411        H413   1.085       .  S
C412        H414   1.085       .  S
C415        C416   1.203       .  T
C417        C418   1.362       .  D
C417        H419   1.085       .  S
C418        H420   1.086       .  S
C421        C422   1.207       .  T
C423        C424   1.205       .  T
C425        C426   1.199       .  T
C427        C428   1.210       .  T
C429        C430   1.204       .  T
C431        C432   1.362       .  D
C431        H433   1.085       .  S
C432        H434   1.085       .  S
C435        C436   1.207       .  T
C437        C438   1.371       .  D
C437        H439   1.086       .  S
C438        H440   1.085       .  S
C441        C442   1.204       .  T
C443        C444   1.360       .  D
C443        H445   1.086       .  S
C444        H446   1.086       .  S
C447        C448   1.208       .  T
C449        C450   1.361       .  D
C449        H451   1.086       .  S
C450        H452   1.086       .  S
C453        C454   1.215       .  T
C455        C456   1.204       .  T
C457        C458   1.212       .  T
C459        C460   1.208       .  T
C461        C462   1.205       .  T
C463        C464   1.205       .  T
C465        C466   1.202       .  T
C467        C468   1.206       .  T
