geometry optimzed in LAMMPS
_audit_creation_date              2020-11-30 
_audit_creation_method            'lammps2cif' 
_symmetry_space_group_name_H-M    'P1' 
_symmetry_Int_Tables_number       1 
_symmetry_cell_setting            triclinic 
loop_ 
_symmetry_equiv_pos_as_xyz 
  x,y,z 
_cell_length_a                    33.862104 
_cell_length_b                    33.89271783349247 
_cell_length_c                    62.658896515211616 
_cell_angle_alpha                 89.96186719811364 
_cell_angle_beta                  89.90461653082262 
_cell_angle_gamma                 120.03972651785885 
loop_ 
_atom_site_label 
_atom_site_type_symbol 
_atom_site_fract_x 
_atom_site_fract_y 
_atom_site_fract_z 
_atom_site_charge 
C1          C  0.21486569  0.34349264  0.32961260     0.04100
C2          C  0.18204363  0.32376225  0.31312797     0.04100
C3          C  0.13830466  0.31971466  0.31551504     0.04100
C4          C  0.12790487  0.33587721  0.33447540     0.04100
C5          C  0.16101697  0.35566263  0.35081568     0.04100
C6          C  0.20419850  0.35918090  0.34845146     0.04100
C7          C  0.28724780  0.18286145  0.20446941    -0.09100
C8          C  0.27630296  0.14181884  0.21454605    -0.02900
C9          C  0.29217230  0.11343330  0.20688897    -0.09000
C10         C  0.31920015  0.12585048  0.18813668     0.11900
C11         C  0.32988467  0.16699273  0.17743367    -0.00800
C12         C  0.31417370  0.19577137  0.18571401     0.11700
C13         C  0.32564971  0.23655715  0.17500389    -0.10900
C14         C  0.35209101  0.24901879  0.15652707    -0.10900
C15         C  0.36760862  0.22090155  0.14790736     0.11700
C16         C  0.35684050  0.17970041  0.15854910    -0.00800
C17         C  0.33667908  0.09891305  0.18007415    -0.11000
C18         C  0.36288716  0.11125132  0.16148594    -0.11000
C19         C  0.37303058  0.15124322  0.15036679     0.11900
C20         C  0.39963571  0.16409120  0.13146986    -0.09000
C21         C  0.40983731  0.20479785  0.12124009    -0.02900
C22         C  0.39412028  0.23312526  0.12903928    -0.09100
H23         H  0.31417954  0.25921548  0.18080783     0.09200
H24         H  0.36036298  0.28107540  0.14907522     0.09200
H25         H  0.33040765  0.06803168  0.18810855     0.09300
H26         H  0.37549199  0.08931652  0.15598415     0.09300
H27         H  0.25583275  0.13226142  0.22899675     0.05800
H28         H  0.42945392  0.21405147  0.10653032     0.05800
C29         C  0.88648298  0.16516543  0.20556829    -0.09100
C30         C  0.84711726  0.13066987  0.21552119    -0.02900
C31         C  0.80784544  0.10158777  0.20412028    -0.09000
C32         C  0.80481609  0.11074759  0.18242622     0.11900
C33         C  0.84272044  0.14793964  0.17226911    -0.00800
C34         C  0.88445697  0.17393916  0.18349252     0.11700
C35         C  0.92262984  0.20712685  0.17211507    -0.10900
C36         C  0.91820633  0.21961839  0.15143633    -0.10900
C37         C  0.87642523  0.19647105  0.14066021     0.11700
C38         C  0.83913319  0.15856278  0.15068669    -0.00800
C39         C  0.76475102  0.08409722  0.17074487    -0.11000
C40         C  0.76150449  0.09422957  0.14951501    -0.11000
C41         C  0.79797249  0.13185713  0.13931765     0.11900
C42         C  0.79450821  0.14348287  0.11800142    -0.09000
C43         C  0.83085614  0.18224650  0.10870066    -0.02900
C44         C  0.87116183  0.20963261  0.11993064    -0.09100
H45         H  0.95629073  0.22422857  0.17905567     0.09200
H46         H  0.94807284  0.24687490  0.14370345     0.09200
H47         H  0.73532326  0.05550298  0.17804740     0.09300
H48         H  0.72988636  0.07250433  0.14123972     0.09300
H49         H  0.84774160  0.12440981  0.23245661     0.05800
H50         H  0.82677311  0.19256731  0.09283748     0.05800
C51         C  0.20483027  0.87511266  0.33343843     0.04100
C52         C  0.17861704  0.86334994  0.31450492     0.04100
C53         C  0.13734907  0.82145015  0.31314234     0.04100
C54         C  0.12334324  0.79043513  0.33040541     0.04100
C55         C  0.14965290  0.80192050  0.34932387     0.04100
C56         C  0.19026932  0.84447995  0.35090618     0.04100
C57         C  0.67016037  0.87635396  0.33280962     0.04100
C58         C  0.68455163  0.86123894  0.31490789     0.04100
C59         C  0.68614937  0.82036523  0.31614985     0.04100
C60         C  0.67445427  0.79516262  0.33546911     0.04100
C61         C  0.66085620  0.81080721  0.35345194     0.04100
C62         C  0.65822378  0.85106407  0.35205032     0.04100
C63         C  0.82306672  0.72290852  0.20191860    -0.09100
C64         C  0.86614894  0.73752855  0.21059752    -0.02900
C65         C  0.89808158  0.72937352  0.20042610    -0.09000
C66         C  0.88656174  0.70572543  0.18073893     0.11900
C67         C  0.84301176  0.69126645  0.17151097    -0.00800
C68         C  0.81112860  0.69996822  0.18212735     0.11700
C69         C  0.76806958  0.68488984  0.17288260    -0.10900
C70         C  0.75648487  0.66179652  0.15343213    -0.10900
C71         C  0.78741460  0.65266264  0.14263859     0.11700
C72         C  0.83104361  0.66738173  0.15181231    -0.00800
C73         C  0.91726449  0.69616886  0.17005369    -0.11000
C74         C  0.90513140  0.67180380  0.15101040    -0.11000
C75         C  0.86234914  0.65729055  0.14158734     0.11900
C76         C  0.84952005  0.63200861  0.12243278    -0.09000
C77         C  0.80694545  0.61851578  0.11341843    -0.02900
C78         C  0.77574957  0.62831650  0.12313677    -0.09100
H79         H  0.74292974  0.69079677  0.18066323     0.09200
H80         H  0.72288328  0.65074071  0.14699814     0.09200
H81         H  0.95086040  0.70710701  0.17643687     0.09300
H82         H  0.92974925  0.66446792  0.14375117     0.09300
H83         H  0.87464256  0.75484043  0.22589573     0.05800
H84         H  0.79761558  0.59931917  0.09862217     0.05800
C85         C  0.54166260  0.00437382  0.99611130     0.04100
C86         C  0.53330528  0.01954451  0.01573403     0.04100
C87         C  0.49261989  0.02080498  0.01884587     0.04100
C88         C  0.45954684  0.00562832  0.00245485     0.04100
C89         C  0.46809823  0.99114484  0.98263072     0.04100
C90         C  0.50904842  0.99018828  0.97953381     0.04100
C91         C  0.53468738  0.54419954  0.00044108     0.04100
C92         C  0.52049951  0.51336932  0.01775752     0.04100
C93         C  0.47912432  0.47158923  0.01655148     0.04100
C94         C  0.45210612  0.46049067  0.99795107     0.04100
C95         C  0.46594004  0.49171278  0.98078145     0.04100
C96         C  0.50754869  0.53337009  0.98191869     0.04100
C97         C  0.01085054  0.46080531  0.00461072     0.04100
C98         C  0.99819251  0.47592364  0.02311331     0.04100
C99         C  0.99626949  0.51663980  0.02225675     0.04100
C100        C  0.00998046  0.54372483  0.00352661     0.04100
C101        C  0.02538287  0.52997506  0.98558820     0.04100
C102        C  0.02425569  0.48777101  0.98585253     0.04100
C103        C  0.32343206  0.20501643  0.66448158     0.04100
C104        C  0.33424535  0.19133575  0.64508267     0.04100
C105        C  0.33213853  0.14851139  0.64364091     0.04100
C106        C  0.31949796  0.11961632  0.66199053     0.04100
C107        C  0.30778089  0.13321301  0.68144709     0.04100
C108        C  0.30913339  0.17578974  0.68243878     0.04100
C109        C  0.14651503  0.37843780  0.87104476    -0.09100
C110        C  0.18901302  0.39332917  0.88036744    -0.02900
C111        C  0.22064590  0.38313347  0.87146258    -0.09000
C112        C  0.20961647  0.35689240  0.85259333     0.11900
C113        C  0.16692291  0.34248988  0.84262027    -0.00800
C114        C  0.13519291  0.35333030  0.85187607     0.11700
C115        C  0.09327074  0.33904524  0.84170714    -0.10900
C116        C  0.08291543  0.31515372  0.82254286    -0.10900
C117        C  0.11391006  0.30426325  0.81305071     0.11700
C118        C  0.15604494  0.31745658  0.82329760    -0.00800
C119        C  0.24019011  0.34519249  0.84330975    -0.11000
C120        C  0.22908685  0.31975924  0.82455688    -0.11000
C121        C  0.18747137  0.30604171  0.81415460     0.11900
C122        C  0.17615873  0.28102837  0.79487705    -0.09000
C123        C  0.13465184  0.26870519  0.78491694    -0.02900
C124        C  0.10387048  0.28039594  0.79355930    -0.09100
H125        H  0.06835508  0.34668615  0.84839782     0.09200
H126        H  0.05026877  0.30511666  0.81524237     0.09200
H127        H  0.27304338  0.35566056  0.85046814     0.09300
H128        H  0.25361210  0.31126328  0.81816883     0.09300
H129        H  0.19741144  0.41276911  0.89508003     0.05800
H130        H  0.12655624  0.25047318  0.76986846     0.05800
C131        C  0.21170533  0.86248008  0.87939260    -0.09100
C132        C  0.18532387  0.82026040  0.88936759    -0.02900
C133        C  0.14809957  0.78417845  0.87914744    -0.09000
C134        C  0.13666925  0.79023940  0.85815698     0.11900
C135        C  0.16328412  0.83292699  0.84776777    -0.00800
C136        C  0.20010944  0.86953273  0.85864480     0.11700
C137        C  0.22397861  0.91223894  0.84859773    -0.10900
C138        C  0.21358348  0.91830767  0.82775532    -0.10900
C139        C  0.18091452  0.88126913  0.81573651     0.11700
C140        C  0.15389405  0.83864463  0.82625124    -0.00800
C141        C  0.10005722  0.75462140  0.84713994    -0.11000
C142        C  0.09010871  0.76052849  0.82620125    -0.11000
C143        C  0.11697932  0.80193073  0.81541482     0.11900
C144        C  0.10869308  0.80730591  0.79385163    -0.09000
C145        C  0.13927265  0.84698123  0.78307068    -0.02900
C146        C  0.17365301  0.88522533  0.79366096    -0.09100
H147        H  0.25065793  0.94142938  0.85690178     0.09200
H148        H  0.23177439  0.95233274  0.82119749     0.09200
H149        H  0.07900861  0.72170199  0.85457032     0.09300
H150        H  0.06197109  0.73191987  0.81826782     0.09300
H151        H  0.19494760  0.81484883  0.90514861     0.05800
H152        H  0.13392296  0.84915742  0.76615235     0.05800
C153        C  0.87221538  0.20752242  0.66353752     0.04100
C154        C  0.86124085  0.18336528  0.68300535     0.04100
C155        C  0.81935713  0.14234461  0.68536022     0.04100
C156        C  0.78788090  0.12557419  0.66831328     0.04100
C157        C  0.79864134  0.14958758  0.64872280     0.04100
C158        C  0.84062866  0.19078974  0.64649811     0.04100
C159        C  0.78893421  0.66178890  0.66762016     0.04100
C160        C  0.81651359  0.67740349  0.68609361     0.04100
C161        C  0.85722833  0.67551125  0.68711884     0.04100
C162        C  0.87023334  0.65786144  0.66969938     0.04100
C163        C  0.84292439  0.64283498  0.65111761     0.04100
C164        C  0.80205231  0.64438301  0.65016935     0.04100
C165        C  0.61468051  0.84815162  0.87109521    -0.09100
C166        C  0.59900851  0.80435628  0.87914057    -0.02900
C167        C  0.61153404  0.77469074  0.86990497    -0.09000
C168        C  0.63937893  0.78833436  0.85145157     0.11900
C169        C  0.65563014  0.83273520  0.84301419    -0.00800
C170        C  0.64385470  0.86305877  0.85306846     0.11700
C171        C  0.66132308  0.90722039  0.84477687    -0.10900
C172        C  0.68953633  0.92133352  0.82684474    -0.10900
C173        C  0.70043382  0.89145403  0.81621617     0.11700
C174        C  0.68372933  0.84684403  0.82450290    -0.00800
C175        C  0.65101714  0.75871158  0.84114400    -0.11000
C176        C  0.67810907  0.77234874  0.82282224    -0.11000
C177        C  0.69474664  0.81618695  0.81422682     0.11900
C178        C  0.72227131  0.83036242  0.79565156    -0.09000
C179        C  0.73853344  0.87440597  0.78776239    -0.02900
C180        C  0.72784833  0.90499693  0.79758006    -0.09100
H181        H  0.65335587  0.93130370  0.85212648     0.09200
H182        H  0.70263844  0.95595904  0.82133937     0.09200
H183        H  0.63883517  0.72450538  0.84706982     0.09300
H184        H  0.68604179  0.74825033  0.81545655     0.09300
H185        H  0.57767948  0.79362285  0.89332687     0.05800
H186        H  0.75875564  0.88457801  0.77323004     0.05800
C187        C  0.04926235  0.48846791  0.46069307    -0.09100
C188        C  0.05717739  0.52850491  0.45066563    -0.02900
C189        C  0.04482735  0.55800071  0.46018469    -0.09000
C190        C  0.02456763  0.54779798  0.48069063     0.11900
C191        C  0.01554090  0.50669027  0.49094461    -0.00800
C192        C  0.02763179  0.47669503  0.48083829     0.11700
C193        C  0.01748578  0.43572334  0.49102253    -0.10900
C194        C  0.99538785  0.42408168  0.51073437    -0.10900
C195        C  0.98346446  0.45341914  0.52109525     0.11700
C196        C  0.99396838  0.49531334  0.51123300    -0.00800
C197        C  0.01260163  0.57709531  0.49106809    -0.11000
C198        C  0.99233935  0.56640219  0.51123642    -0.11000
C199        C  0.98242032  0.52556500  0.52150890     0.11900
C200        C  0.96133704  0.51398805  0.54183020    -0.09000
C201        C  0.95073620  0.47240790  0.55114257    -0.02900
C202        C  0.96077039  0.44185852  0.54098100    -0.09100
H203        H  0.02616067  0.41212056  0.48369693     0.09200
H204        H  0.98789867  0.39194844  0.51786376     0.09200
H205        H  0.01898037  0.60863889  0.48368358     0.09300
H206        H  0.98413706  0.59025925  0.51865439     0.09300
H207        H  0.07328720  0.53688207  0.43504462     0.05800
H208        H  0.93347351  0.46321116  0.56649054     0.05800
C209        C  0.52485044  0.56899781  0.46198276    -0.09100
C210        C  0.48439423  0.54198575  0.45084964    -0.02900
C211        C  0.45001048  0.50068564  0.45913156    -0.09000
C212        C  0.45595874  0.48564531  0.47929789     0.11900
C213        C  0.49701310  0.51271571  0.49077781    -0.00800
C214        C  0.53165588  0.55455923  0.48208319     0.11700
C215        C  0.57219675  0.58058302  0.49359419    -0.10900
C216        C  0.57867176  0.56585119  0.51335972    -0.10900
C217        C  0.54475478  0.52466505  0.52232822     0.11700
C218        C  0.50347057  0.49789739  0.51097865    -0.00800
C219        C  0.42188076  0.44467074  0.48837994    -0.11000
C220        C  0.42822189  0.43013978  0.50822946    -0.11000
C221        C  0.46878213  0.45617338  0.51972702     0.11900
C222        C  0.47580758  0.44157530  0.53974313    -0.09000
C223        C  0.51662411  0.46819132  0.55071322    -0.02900
C224        C  0.55106704  0.50927236  0.54230817    -0.09100
H225        H  0.59936363  0.61251461  0.48734335     0.09200
H226        H  0.61055133  0.58703444  0.52156886     0.09200
H227        H  0.38993680  0.42350386  0.48022101     0.09300
H228        H  0.40103038  0.39826566  0.51451435     0.09300
H229        H  0.47959032  0.55336012  0.43537057     0.05800
H230        H  0.52183551  0.45649899  0.56602240     0.05800
C231        C  0.51003702  0.95006787  0.45932755    -0.09100
C232        C  0.47174199  0.94468908  0.44835384    -0.02900
C233        C  0.44167686  0.95671932  0.45762715    -0.09000
C234        C  0.45111313  0.97633129  0.47825707     0.11900
C235        C  0.48863664  0.97989568  0.48996186    -0.00800
C236        C  0.51829595  0.96676553  0.48042685     0.11700
C237        C  0.55554845  0.97090750  0.49214238    -0.10900
C238        C  0.56312579  0.98691917  0.51303090    -0.10900
C239        C  0.53396202  0.99970585  0.52288593     0.11700
C240        C  0.49650285  0.99657347  0.51124017    -0.00800
C241        C  0.42516007  0.99395441  0.48717305    -0.11000
C242        C  0.43469405  0.01297842  0.50755808    -0.11000
C243        C  0.46785651  0.01147751  0.52055480     0.11900
C244        C  0.47428819  0.02525104  0.54235272    -0.09000
C245        C  0.50903513  0.02377256  0.55392996    -0.02900
C246        C  0.54090221  0.01497661  0.54422012    -0.09100
H247        H  0.57894664  0.96134896  0.48531544     0.09200
H248        H  0.59173073  0.98859006  0.52153688     0.09200
H249        H  0.39803710  0.99427605  0.47818122     0.09300
H250        H  0.41556991  0.02876797  0.51287402     0.09300
H251        H  0.46483101  0.93017263  0.43243694     0.05800
H252        H  0.51353972  0.03289919  0.57068708     0.05800
O253        O  0.01749220  0.93775508  0.01869311    -0.86600
C254        C  0.08237139  0.03587271  0.97345239     0.89500
Mg255      Mg  0.94697786  0.88621809  0.01575610     1.58100
O256        O  0.05534966  0.07368354  0.02057043    -0.86300
O257        O  0.06219770  0.99132459  0.04091465    -0.73600
C258        C  0.83706917  0.99753132  0.99153487     0.94500
O259        O  0.00051803  0.93048045  0.96810467    -0.73400
O260        O  0.83473648  0.95935917  0.98808159    -0.80900
Mg261      Mg  0.05983497  0.94779766  0.99120291     1.58000
C262        C  0.99712402  0.15697619  0.01408469     0.94400
O263        O  0.12358469  0.96224390  0.01055194    -0.79200
H264        H  0.06024019  0.08346629  0.05211733    -0.04500
C265        C  0.96500554  0.04358513  0.97134312     0.89400
O266        O  0.92515576  0.92657191  0.03755780    -0.73700
O267        O  0.07902340  0.01836025  0.99114841    -0.86500
O268        O  0.03384779  0.15618210  0.01070595    -0.79300
C269        C  0.16089209  0.15857143  0.99750440     0.94600
C270        C  0.15967138  0.99662417  0.01766381     0.94400
Mg271      Mg  0.93806832  0.04651041  0.01707268     1.58000
O272        O  0.87358273  0.03171027  0.99840656    -0.79200
O273        O  0.99770531  0.06458351  0.04003607    -0.73400
O274        O  0.15896708  0.12201315  0.00405101    -0.79300
O275        O  0.03989945  0.87338146  0.99120510    -0.81000
O276        O  0.83944625  0.87231729  0.00431707    -0.79300
C277        C  0.03908555  0.07476240  0.03807654     0.88900
O278        O  0.91868926  0.97572207  0.01736771    -0.86500
O279        O  0.97983294  0.05572755  0.98960248    -0.86600
O280        O  0.93428004  0.00287667  0.96737752    -0.73600
Mg281      Mg  0.10714630  0.05483992  0.02057594     1.58000
O282        O  0.12498627  0.16079152  0.99426536    -0.81000
H283        H  0.01713938  0.92663061  0.04998631    -0.04700
O284        O  0.94243386  0.92053009  0.98752237    -0.86300
H285        H  0.93811681  0.91198187  0.95584975    -0.04500
H286        H  0.90401906  0.96924462  0.04849247    -0.04700
C287        C  0.95908927  0.92018354  0.97001333     0.88800
C288        C  0.03176539  0.95043857  0.03699539     0.89400
C289        C  0.91498245  0.95760606  0.03494703     0.89500
H290        H  0.97931539  0.06769031  0.95844311    -0.04700
O291        O  0.07158192  0.06632914  0.97051271    -0.73700
Mg292      Mg  0.89021676  0.93942836  0.98787531     1.58000
H293        H  0.09332740  0.02380256  0.95993832    -0.04700
C294        C  0.00162827  0.83685409  0.99293463     0.94400
O295        O  0.87236188  0.83189076  0.01304484    -0.81000
C296        C  0.83683907  0.83490721  0.00989735     0.94500
O297        O  0.16160374  0.03463598  0.02082404    -0.80900
Mg298      Mg  0.05052376  0.10711903  0.99227668     1.58200
O299        O  0.96544847  0.83771653  0.99784638    -0.79300
O300        O  0.95850140  0.12083765  0.01559563    -0.81000
O301        O  0.72409830  0.30793082  0.31638356    -0.86600
C302        C  0.62205482  0.24950709  0.36060221     0.89500
Mg303      Mg  0.77884651  0.37658039  0.31923443     1.58100
O304        O  0.58977421  0.27860180  0.31220249    -0.86300
O305        O  0.67038695  0.26467343  0.29391926    -0.73600
C306        C  0.67948339  0.49932665  0.33904717     0.94500
O307        O  0.73003962  0.32684999  0.36683260    -0.73400
O308        O  0.71624791  0.49921585  0.34311702    -0.80900
Mg309      Mg  0.71001324  0.26626348  0.34424249     1.58000
C310        C  0.51379087  0.34613163  0.31577509     0.94400
O311        O  0.69333523  0.20227325  0.32535369    -0.79200
H312        H  0.58120810  0.27271959  0.28053835    -0.04500
C313        C  0.62417047  0.37159970  0.36060413     0.89400
O314        O  0.74277101  0.40119185  0.29611563    -0.73700
O315        O  0.64050257  0.25192749  0.34324483    -0.86500
O316        O  0.51170111  0.30880897  0.32119682    -0.79300
C317        C  0.49893366  0.17678127  0.33470376     0.94600
C318        C  0.65749500  0.16638319  0.31938908     0.94400
Mg319      Mg  0.62522348  0.39776159  0.31421252     1.58000
O320        O  0.64404674  0.46387535  0.33222741    -0.79200
O321        O  0.60414995  0.33671169  0.29185985    -0.73400
O322        O  0.53488917  0.17653999  0.32884580    -0.79300
O323        O  0.78295394  0.28052736  0.34494342    -0.81000
O324        O  0.79955003  0.48706928  0.32791954    -0.79300
C325        C  0.59078881  0.29472976  0.29440547     0.88900
O326        O  0.69464225  0.41191048  0.31510822    -0.86500
O327        O  0.61159463  0.35639795  0.34241534    -0.86600
O328        O  0.66558712  0.40037859  0.36465900    -0.73600
Mg329      Mg  0.60477155  0.22398941  0.31366077     1.58000
O330        O  0.49858421  0.21361294  0.33816258    -0.81000
H331        H  0.73647626  0.30599402  0.28531977    -0.04700
O332        O  0.74484022  0.38510826  0.34645214    -0.86300
H333        H  0.75203843  0.39060903  0.37815365    -0.04500
H334        H  0.70352298  0.42532021  0.28386260    -0.04700
C335        C  0.74317400  0.36883311  0.36430734     0.88800
C336        C  0.71173955  0.29326039  0.29812072     0.89400
C337        C  0.71328794  0.41376336  0.29786274     0.89500
H338        H  0.59963398  0.35922131  0.37343972    -0.04700
O339        O  0.59292567  0.26238532  0.36273848    -0.73700
Mg340      Mg  0.73083457  0.44041165  0.34458924     1.58000
H341        H  0.63192059  0.23747297  0.37437648    -0.04700
C342        C  0.82090293  0.31751141  0.34375444     0.94400
O343        O  0.83624833  0.44897757  0.32180653    -0.81000
C344        C  0.83583210  0.48611741  0.32347986     0.94500
O345        O  0.62027190  0.16598517  0.31582530    -0.80900
Mg346      Mg  0.55656635  0.28708437  0.34005730     1.58200
O347        O  0.82327831  0.35523900  0.33895070    -0.79300
O348        O  0.55186152  0.38288665  0.31373183    -0.81000
O349        O  0.30644116  0.71871806  0.68592177    -0.86600
C350        C  0.25331036  0.62454646  0.63794715     0.89500
Mg351      Mg  0.37585334  0.77399624  0.68534891     1.58100
O352        O  0.27873446  0.58574535  0.68541097    -0.86300
O353        O  0.26050891  0.66088875  0.70604463    -0.73600
C354        C  0.50130592  0.68025842  0.66097983     0.94500
O355        O  0.33065408  0.73413318  0.63575717    -0.73400
O356        O  0.50124334  0.71762686  0.65931412    -0.80900
Mg357      Mg  0.26747713  0.70955713  0.65720299     1.58000
C358        C  0.34664995  0.51178575  0.68012732     0.94400
O359        O  0.19958926  0.68764926  0.67486031    -0.79200
H360        H  0.27145735  0.57407835  0.71683846    -0.04500
C361        C  0.37520694  0.62807211  0.63826576     0.89400
O362        O  0.39937670  0.73464086  0.70682994    -0.73700
O363        O  0.25399104  0.64029936  0.65580918    -0.86500
O364        O  0.30981187  0.51111441  0.67532696    -0.79300
C365        C  0.17913746  0.49684794  0.65951959     0.94600
C366        C  0.16374572  0.64998683  0.67935017     0.94400
Mg367      Mg  0.39873011  0.62190936  0.68408912     1.58000
O368        O  0.46532997  0.64278264  0.66544951    -0.79200
O369        O  0.33600742  0.59795290  0.70598853    -0.73400
O370        O  0.17748920  0.53227403  0.66496143    -0.79300
O371        O  0.28216352  0.78320906  0.65825920    -0.81000
O372        O  0.48818850  0.79819536  0.67614196    -0.79300
C373        C  0.29405523  0.58501612  0.70322526     0.88900
O374        O  0.41263686  0.69102338  0.68584119    -0.86500
O375        O  0.35873704  0.61260908  0.65600058    -0.86600
O376        O  0.40433273  0.66994614  0.63559749    -0.73600
Mg377      Mg  0.22299383  0.59899731  0.68372336     1.58000
O378        O  0.21685217  0.49744588  0.65779654    -0.81000
H379        H  0.30039272  0.72514541  0.71730419    -0.04700
O380        O  0.38703520  0.74555756  0.65667728    -0.86300
H381        H  0.39567765  0.75891468  0.62540492    -0.04500
H382        H  0.42392342  0.69443481  0.71721042    -0.04700
C383        C  0.37248236  0.74721724  0.63883020     0.88800
C384        C  0.28947788  0.70289152  0.70355425     0.89400
C385        C  0.41300424  0.70631924  0.70378501     0.89500
H386        H  0.36374476  0.60557306  0.62457283    -0.04700
O387        O  0.26620770  0.59560374  0.63508349    -0.73700
Mg388      Mg  0.44260907  0.73187901  0.65779586     1.58000
H389        H  0.24250452  0.63639266  0.62442087    -0.04700
C390        C  0.31919509  0.82037893  0.66164135     0.94400
O391        O  0.44896761  0.83260441  0.68455120    -0.81000
C392        C  0.48665604  0.83344067  0.68193788     0.94500
O393        O  0.16462109  0.61315759  0.68168052    -0.80900
Mg394      Mg  0.28967560  0.55682302  0.65700452     1.58200
O395        O  0.35505529  0.82069917  0.66807531    -0.79300
O396        O  0.38412724  0.54898291  0.68229321    -0.81000
C397        C  0.95359169  0.61854867  0.68478225     0.14500
C398        C  0.99355598  0.65079509  0.67423139     0.01400
C399        C  0.99241094  0.68468611  0.66169140     0.16400
C400        C  0.95238632  0.68700538  0.66021278     0.25800
C401        C  0.91270651  0.65510548  0.67097840    -0.40500
C402        C  0.91346718  0.62059634  0.68308363     0.32900
C403        C  0.03659255  0.64964794  0.67662268     0.01500
F404        F  0.03001252  0.71531050  0.65072655    -0.12800
F405        F  0.87523487  0.58884382  0.69325110    -0.13400
C406        C  0.03851062  0.61044518  0.67110561     0.16400
C407        C  0.07936715  0.60980898  0.67303313     0.25800
C408        C  0.11933515  0.64864431  0.68027810    -0.40500
C409        C  0.11712113  0.68757919  0.68610761     0.32800
C410        C  0.07614764  0.68800383  0.68434436     0.14500
F411        F  0.00128970  0.57340669  0.66294648    -0.12800
F412        F  0.15470732  0.72538583  0.69345133    -0.13300
F413        F  0.08033980  0.57201951  0.66662977    -0.15600
F414        F  0.07514831  0.72608523  0.69011260    -0.14200
F415        F  0.95369443  0.58564369  0.69711182    -0.14200
F416        F  0.95242086  0.72066643  0.64845413    -0.15600
C417        C  0.71009945  0.70915625  0.65807783     0.14500
C418        C  0.66708836  0.67119993  0.66261574     0.01400
C419        C  0.66438344  0.63005744  0.66897050     0.16400
C420        C  0.70398031  0.62697290  0.67066927     0.25800
C421        C  0.74681967  0.66501766  0.66620980    -0.40500
C422        C  0.74961743  0.70608901  0.65992462     0.32900
C423        C  0.62529128  0.67490140  0.66114090     0.01500
F424        F  0.62348807  0.59318283  0.67397897    -0.12800
F425        F  0.79068917  0.74305738  0.65528847    -0.13400
C426        C  0.58870032  0.64520250  0.64800174     0.16400
C427        C  0.54870124  0.64780343  0.64729466     0.25800
C428        C  0.54496554  0.68060775  0.65944395    -0.40500
C429        C  0.58193770  0.71101294  0.67216317     0.32800
C430        C  0.62155279  0.70790636  0.67316653     0.14500
F431        F  0.59166428  0.61358240  0.63590905    -0.12800
F432        F  0.57861338  0.74198314  0.68464152    -0.13300
F433        F  0.51363502  0.61838191  0.63472625    -0.15600
F434        F  0.65550932  0.73583350  0.68663426    -0.14200
F435        F  0.71373676  0.74903359  0.65151902    -0.14200
F436        F  0.70062836  0.58697339  0.67678098    -0.15600
C437        C  0.71450128  0.74606350  0.75395493     0.14500
C438        C  0.75940158  0.75388740  0.75386727     0.01400
C439        C  0.79060925  0.78356887  0.76907697     0.16400
C440        C  0.77770994  0.80656594  0.78354726     0.25800
C441        C  0.73334337  0.79999993  0.78312046    -0.40500
C442        C  0.70159969  0.76903479  0.76847334     0.32900
C443        C  0.77469480  0.73390358  0.73695392     0.01500
F444        F  0.83393652  0.79109552  0.76951912    -0.12800
F445        F  0.65888261  0.76303052  0.76748838    -0.13400
C446        C  0.80792880  0.76257776  0.72209324     0.16400
C447        C  0.82194273  0.74415794  0.70577945     0.25800
C448        C  0.80311434  0.69681531  0.70409718    -0.40500
C449        C  0.77006499  0.66804575  0.71897047     0.32800
C450        C  0.75580355  0.68645528  0.73525901     0.14500
F451        F  0.82587329  0.80843775  0.72305559    -0.12800
F452        F  0.75152154  0.62216533  0.71760900    -0.13300
F453        F  0.85315255  0.77245584  0.69128981    -0.15600
F454        F  0.72382579  0.65807985  0.74946514    -0.14200
F455        F  0.68397190  0.71821078  0.73918338    -0.14200
F456        F  0.80895070  0.83653119  0.79749585    -0.15600
C457        C  0.63552447  0.58723665  0.58347248     0.14500
C458        C  0.66893749  0.57420557  0.58255006     0.01400
C459        C  0.66494633  0.54210427  0.56724581     0.16400
C460        C  0.62740234  0.52236175  0.55349861     0.25800
C461        C  0.59339860  0.53440141  0.55491235    -0.40500
C462        C  0.59782831  0.56722005  0.56982721     0.32900
C463        C  0.70615604  0.59193896  0.59848523     0.01500
F464        F  0.69711332  0.52948467  0.56585041    -0.12800
F465        F  0.56477012  0.57854465  0.57166457    -0.13400
C466        C  0.70875207  0.56208893  0.61327194     0.16400
C467        C  0.74128488  0.57909520  0.62956060     0.25800
C468        C  0.77166496  0.62613082  0.63129002    -0.40500
C469        C  0.77022393  0.65583059  0.61606982     0.32800
C470        C  0.73755724  0.63887342  0.59982041     0.14500
F471        F  0.67831285  0.51669951  0.61253615    -0.12800
F472        F  0.79976879  0.70133758  0.61727982    -0.13300
F473        F  0.74190190  0.54990948  0.64422710    -0.15600
F474        F  0.73611704  0.66825981  0.58553630    -0.14200
F475        F  0.63845476  0.61787635  0.59823005    -0.14200
F476        F  0.62344027  0.49050465  0.53919872    -0.15600
C477        C  0.87213697  0.56880490  0.61700236     0.14500
C478        C  0.89319881  0.59719313  0.59930785     0.01400
C479        C  0.89547395  0.63962531  0.59807350     0.16400
C480        C  0.87793569  0.65401515  0.61468412     0.25800
C481        C  0.85769271  0.62595286  0.63260284    -0.40500
C482        C  0.85430146  0.58298488  0.63348653     0.32900
C483        C  0.91446718  0.58284054  0.58276942     0.01500
F484        F  0.91606671  0.66763528  0.58116838    -0.12800
F485        F  0.83447034  0.55519302  0.65053196    -0.13400
C486        C  0.89209181  0.56457500  0.56334314     0.16400
C487        C  0.90909093  0.54470785  0.54913645     0.25800
C488        C  0.94884152  0.54338154  0.55416070    -0.40500
C489        C  0.97224161  0.56353892  0.57315356     0.32800
C490        C  0.95520255  0.58319164  0.58734829     0.14500
F491        F  0.85239191  0.56351938  0.55879058    -0.12800
F492        F  0.01023797  0.56185246  0.57845343    -0.13300
F493        F  0.88523708  0.52410219  0.53119519    -0.15600
F494        F  0.97729924  0.60079885  0.60604018    -0.14200
F495        F  0.86945778  0.52754895  0.61838547    -0.14200
F496        F  0.88228124  0.69601581  0.61371102    -0.15600
C497        C  0.66831207  0.04296589  0.68795526     0.14500
C498        C  0.65970823  0.00182320  0.67840607     0.01400
C499        C  0.69358375  0.00180620  0.66530753     0.16400
C500        C  0.73526315  0.04190069  0.66208006     0.25800
C501        C  0.74327634  0.08298592  0.67129416    -0.40500
C502        C  0.70939837  0.08327505  0.68412428     0.32900
C503        C  0.61503241  0.95937464  0.68150516     0.01500
F504        F  0.68603474  0.96313114  0.65529398    -0.12800
F505        F  0.71621623  0.12274743  0.69295823    -0.13400
C506        C  0.57404598  0.95904689  0.67734048     0.16400
C507        C  0.53208474  0.91859743  0.67887281     0.25800
C508        C  0.53019652  0.87722176  0.68404960    -0.40500
C509        C  0.57113600  0.87777922  0.68877880     0.32800
C510        C  0.61302008  0.91853071  0.68780208     0.14500
F511        F  0.57468252  0.99746972  0.67063234    -0.12800
F512        F  0.57073837  0.83873747  0.69410943    -0.13300
F513        F  0.49356604  0.91955579  0.67387021    -0.15600
F514        F  0.65172870  0.91797531  0.69283887    -0.14200
F515        F  0.63715459  0.04403882  0.70124321    -0.14200
F516        F  0.76801655  0.04054481  0.65013094    -0.15600
C517        C  0.05533658  0.41245190  0.64620691     0.14500
C518        C  0.04997102  0.37154009  0.65473825     0.01400
C519        C  0.08859395  0.37167421  0.66318123     0.16400
C520        C  0.13107471  0.41192511  0.66366808     0.25800
C521        C  0.13572426  0.45330345  0.65626042    -0.40500
C522        C  0.09750869  0.45300013  0.64730510     0.32900
C523        C  0.00387285  0.32965249  0.65603585     0.01500
F524        F  0.08481047  0.33335532  0.67204616    -0.12800
F525        F  0.10098491  0.49207549  0.63960539    -0.13400
C526        C  0.99676695  0.28709193  0.64896045     0.16400
C527        C  0.95414912  0.24753871  0.65154272     0.25800
C528        C  0.91750867  0.24980561  0.66077141    -0.40500
C529        C  0.92409039  0.29223795  0.66737817     0.32800
C530        C  0.96688101  0.33166887  0.66524489     0.14500
F531        F  0.03098803  0.28379802  0.63937901    -0.12800
F532        F  0.88908061  0.29542688  0.67608289    -0.13300
F533        F  0.94863754  0.20683042  0.64514675    -0.15600
F534        F  0.97247760  0.37166122  0.67282870    -0.14200
F535        F  0.01958532  0.41326604  0.63688527    -0.14200
F536        F  0.16702744  0.41090147  0.67265376    -0.15600
C537        C  0.78089483  0.09425192  0.74117120     0.14500
C538        C  0.78782448  0.05668216  0.74067900     0.01400
C539        C  0.80669364  0.04869246  0.72232111     0.16400
C540        C  0.81769421  0.07724431  0.70459912     0.25800
C541        C  0.81015701  0.11431178  0.70492991    -0.40500
C542        C  0.79233388  0.12314816  0.72341868     0.32900
C543        C  0.77326102  0.02389357  0.75860491     0.01500
F544        F  0.81288553  0.01212995  0.72128896    -0.12800
F545        F  0.78502189  0.15900780  0.72405562    -0.13400
C546        C  0.72668232  0.99659074  0.76350536     0.16400
C547        C  0.71194725  0.95936828  0.77733629     0.25800
C548        C  0.74367949  0.94939719  0.78670648    -0.40500
C549        C  0.79048992  0.97856618  0.78286746     0.32800
C550        C  0.80516050  0.01550468  0.76890722     0.14500
F551        F  0.69521294  0.00383607  0.75361541    -0.12800
F552        F  0.82179675  0.96977232  0.79179998    -0.13300
F553        F  0.66650993  0.93117783  0.78038150    -0.15600
F554        F  0.85038759  0.04186539  0.76461760    -0.14200
F555        F  0.76285341  0.10268740  0.75876238    -0.14200
F556        F  0.83496496  0.06828101  0.68688057    -0.15600
C557        C  0.69304314  0.11675187  0.61565509     0.14500
C558        C  0.69684468  0.08998034  0.59955923     0.01400
C559        C  0.73560031  0.08506375  0.59888981     0.16400
C560        C  0.76954916  0.10567046  0.61449478     0.25800
C561        C  0.76528309  0.13172918  0.63085304    -0.40500
C562        C  0.72706534  0.13756265  0.63115454     0.32900
C563        C  0.65945330  0.06628758  0.58395410     0.01500
F564        F  0.73977420  0.05914375  0.58353058    -0.12800
F565        F  0.72230221  0.16259845  0.64678189    -0.13400
C566        C  0.66268982  0.08473989  0.56352984     0.16400
C567        C  0.62487081  0.06579577  0.54988096     0.25800
C568        C  0.58337946  0.02785239  0.55641266    -0.40500
C569        C  0.58102525  0.00809900  0.57646834     0.32800
C570        C  0.61876843  0.02720679  0.59013374     0.14500
F571        F  0.70159042  0.12274469  0.55734549    -0.12800
F572        F  0.54137730  0.97166930  0.58320974    -0.13300
F573        F  0.62770573  0.08651305  0.53092534    -0.15600
F574        F  0.61510829  0.00872976  0.60978068    -0.14200
F575        F  0.65600457  0.12223370  0.61645368    -0.14200
F576        F  0.80560292  0.09860438  0.61417244    -0.15600
C577        C  0.95315928  0.35111139  0.57836742     0.14500
C578        C  0.90591987  0.32035963  0.57810822     0.01400
C579        C  0.87810133  0.32705027  0.56373925     0.16400
C580        C  0.89695297  0.36513579  0.55037981     0.25800
C581        C  0.94374861  0.39712534  0.55136261    -0.40500
C582        C  0.97199888  0.38949644  0.56507781     0.32900
C583        C  0.88504952  0.28402299  0.59426524     0.01500
F584        F  0.83240287  0.29769555  0.56335924    -0.12800
F585        F  0.01714677  0.42058270  0.56649574    -0.13400
C586        C  0.85912449  0.28769885  0.61084806     0.16400
C587        C  0.84185252  0.25518917  0.62710109     0.25800
C588        C  0.85080556  0.21902404  0.62709644    -0.40500
C589        C  0.87551572  0.21450837  0.61019378     0.32800
C590        C  0.89245164  0.24683912  0.59378677     0.14500
F591        F  0.85254637  0.32403151  0.61182493    -0.12800
F592        F  0.88513142  0.18016966  0.61015809    -0.13300
F593        F  0.81853270  0.26027790  0.64350946    -0.15600
F594        F  0.91698994  0.24258969  0.57771668    -0.14200
F595        F  0.98037660  0.34549954  0.59247529    -0.14200
F596        F  0.86919672  0.37232892  0.53732632    -0.15600
C597        C  0.98729331  0.75488118  0.77453934     0.14500
C598        C  0.99044726  0.73813619  0.75451054     0.01400
C599        C  0.03064895  0.73818375  0.74893127     0.16400
C600        C  0.06812533  0.75689427  0.76271808     0.25800
C601        C  0.06596702  0.77590017  0.78232899    -0.40500
C602        C  0.02485558  0.77376858  0.78834614     0.32900
C603        C  0.95349030  0.72392037  0.73863996     0.01500
F604        F  0.03416018  0.72185213  0.72968366    -0.12800
F605        F  0.02241854  0.79351087  0.80677353    -0.13400
C606        C  0.95939817  0.75228794  0.72112226     0.16400
C607        C  0.92685291  0.73728976  0.70485952     0.25800
C608        C  0.88782649  0.69383616  0.70594294    -0.40500
C609        C  0.88069017  0.66640814  0.72399893     0.32800
C610        C  0.91348811  0.68130340  0.74022862     0.14500
F611        F  0.99725729  0.79414470  0.71958795    -0.12800
F612        F  0.84299811  0.62444549  0.72541007    -0.13300
F613        F  0.93405600  0.76452942  0.68767917    -0.15600
F614        F  0.90720321  0.65346538  0.75704091    -0.14200
F615        F  0.94893498  0.75569660  0.78008356    -0.14200
F616        F  0.10757294  0.75916017  0.75637209    -0.15600
C617        C  0.92681059  0.24465717  0.73267582     0.14500
C618        C  0.95731456  0.22810561  0.73442993     0.01400
C619        C  0.95651846  0.19753529  0.71905872     0.16400
C620        C  0.92548454  0.18343716  0.70224809     0.25800
C621        C  0.89475550  0.19956698  0.70060802    -0.40500
C622        C  0.89549015  0.23025265  0.71587283     0.32900
C623        C  0.99091432  0.24310542  0.75190062     0.01500
F624        F  0.98641476  0.18195978  0.72017420    -0.12800
F625        F  0.86567618  0.24588022  0.71456038    -0.13400
C626        C  0.99055359  0.21088230  0.76615534     0.16400
C627        C  0.02632986  0.22359008  0.78057430     0.25800
C628        C  0.06260871  0.26868283  0.78100408    -0.40500
C629        C  0.06188422  0.30144030  0.76754049     0.32800
C630        C  0.02615120  0.28874247  0.75306433     0.14500
F631        F  0.95629550  0.16680257  0.76554942    -0.12800
F632        F  0.09709584  0.34507869  0.76762036    -0.13300
F633        F  0.02658322  0.19162558  0.79355125    -0.15600
F634        F  0.02740661  0.32028247  0.73927624    -0.14200
F635        F  0.92696995  0.27412600  0.74738933    -0.14200
F636        F  0.92531646  0.15400059  0.68752124    -0.15600
C637        C  0.36624149  0.32611154  0.68317326     0.14500
C638        C  0.33618907  0.33711456  0.67285891     0.01400
C639        C  0.30277686  0.30505164  0.65904866     0.16400
C640        C  0.29901876  0.26242658  0.65594891     0.25800
C641        C  0.32877999  0.25134486  0.66650728    -0.40500
C642        C  0.36275217  0.28375640  0.67990674     0.32900
C643        C  0.33987905  0.38205914  0.67646888     0.01500
F644        F  0.27395010  0.31513086  0.64847785    -0.12800
F645        F  0.39245519  0.27412085  0.68992215    -0.13400
C646        C  0.38124006  0.42248020  0.67254608     0.16400
C647        C  0.38436731  0.46491963  0.67518842     0.25800
C648        C  0.34584270  0.46773153  0.68141083    -0.40500
C649        C  0.30483549  0.42718573  0.68598164     0.32800
C650        C  0.30199603  0.38481293  0.68364662     0.14500
F651        F  0.41809269  0.42083768  0.66512165    -0.12800
F652        F  0.26717313  0.42847408  0.69240428    -0.13300
F653        F  0.42434624  0.50306592  0.67028623    -0.15600
F654        F  0.26204994  0.34636599  0.68824867    -0.14200
F655        F  0.39837187  0.35605173  0.69681490    -0.14200
F656        F  0.26559869  0.23151122  0.64310691    -0.15600
C657        C  0.29127833  0.91172478  0.64441361     0.14500
C658        C  0.31980469  0.94813270  0.65793834     0.01400
C659        C  0.34885734  0.94253527  0.67205133     0.16400
C660        C  0.34950983  0.90163646  0.67268521     0.25800
C661        C  0.32043204  0.86474803  0.65946839    -0.40500
C662        C  0.29127803  0.87028645  0.64530264     0.32900
C663        C  0.31904393  0.99173248  0.65784683     0.01500
F664        F  0.37561736  0.97627558  0.68586809    -0.12800
F665        F  0.26314169  0.83580881  0.63213776    -0.25400
C666        C  0.27818837  0.99208012  0.66154845     0.16400
C667        C  0.27824363  0.03340811  0.66289049     0.25800
C668        C  0.31922353  0.07524807  0.66080081    -0.40500
C669        C  0.36000023  0.07481459  0.65700506     0.32800
C670        C  0.35981510  0.03357035  0.65528401     0.14500
F671        F  0.23834284  0.95240808  0.66439773    -0.12800
F672        F  0.40022024  0.11454319  0.65526915    -0.13300
F673        F  0.23817039  0.03264962  0.66594838    -0.15600
F674        F  0.39962142  0.03449656  0.65107892    -0.14200
F675        F  0.26373088  0.91643949  0.63017792    -0.14200
F676        F  0.37730124  0.89758367  0.68703174    -0.15600
C677        C  0.26723922  0.99330481  0.76631730     0.14500
C678        C  0.24130659  0.00175915  0.75121418     0.01400
C679        C  0.19364473  0.97229595  0.75116505     0.16400
C680        C  0.17245248  0.93923359  0.76684232     0.25800
C681        C  0.19815687  0.92819050  0.78073472    -0.40500
C682        C  0.24614064  0.95497617  0.77979167     0.32900
C683        C  0.26241978  0.03997029  0.73525883     0.01500
F684        F  0.16702881  0.97373600  0.73534366    -0.12800
F685        F  0.27282862  0.94360338  0.79137834    -0.13400
C686        C  0.30426206  0.05259123  0.72493656     0.16400
C687        C  0.32103771  0.08623746  0.70902483     0.25800
C688        C  0.29335682  0.10263074  0.70064653    -0.40500
C689        C  0.25115518  0.08890728  0.71050260     0.32800
C690        C  0.23839970  0.06204666  0.72882570     0.14500
F691        F  0.32817140  0.03125395  0.72928222    -0.12800
F692        F  0.22131883  0.10029156  0.70210608    -0.13300
F693        F  0.36374151  0.10153281  0.70130298    -0.15600
F694        F  0.20166841  0.05693541  0.73995167    -0.14200
F695        F  0.31285189  0.02179267  0.76823684    -0.14200
F696        F  0.12611554  0.91624180  0.76764760    -0.15600
C697        C  0.24312654  0.21327248  0.71784773     0.14500
C698        C  0.26804637  0.22443563  0.73689424     0.01400
C699        C  0.30600087  0.21829405  0.73848538     0.16400
C700        C  0.31912660  0.20150357  0.72101499     0.25800
C701        C  0.29409872  0.19035896  0.70188494    -0.40500
C702        C  0.25568427  0.19596751  0.70060828     0.32900
C703        C  0.25193873  0.23994882  0.75521195     0.01500
F704        F  0.33014385  0.22850023  0.75691052    -0.12800
F705        F  0.22984618  0.18386494  0.68265872    -0.13400
C706        C  0.21523217  0.20757967  0.76745745     0.16400
C707        C  0.19271733  0.22138551  0.78170203     0.25800
C708        C  0.20664366  0.26780263  0.78391684    -0.40500
C709        C  0.24507226  0.30043841  0.77256289     0.32800
C710        C  0.26759459  0.28655496  0.75823817     0.14500
F711        F  0.19928462  0.16240146  0.76447813    -0.12800
F712        F  0.25856560  0.34538851  0.77418192    -0.13300
F713        F  0.15543147  0.18930278  0.79235251    -0.15600
F714        F  0.30254507  0.31827404  0.74624005    -0.14200
F715        F  0.20627411  0.21889693  0.71604654    -0.14200
F716        F  0.35652900  0.19680504  0.72260573    -0.15600
C717        C  0.33511287  0.07297987  0.59989112     0.14500
C718        C  0.37948206  0.10005545  0.59132381     0.01400
C719        C  0.40390507  0.14641284  0.59735213     0.16400
C720        C  0.38957497  0.16177243  0.61470042     0.25800
C721        C  0.34576056  0.13469235  0.62340278    -0.40500
C722        C  0.31717189  0.09179354  0.61416708     0.32900
C723        C  0.40249551  0.08026892  0.57807938     0.01500
F724        F  0.44312948  0.17664343  0.58730119    -0.12800
F725        F  0.27312051  0.06622940  0.62059572    -0.13400
C726        C  0.37841895  0.04360851  0.56375800     0.16400
C727        C  0.40060778  0.02342517  0.55334342     0.25800
C728        C  0.44856559  0.04441289  0.55373358    -0.40500
C729        C  0.47278310  0.08294447  0.56684754     0.32800
C730        C  0.44987361  0.09749275  0.58024682     0.14500
F731        F  0.33369415  0.02734947  0.55939839    -0.12800
F732        F  0.51913354  0.10605696  0.56735712    -0.13300
F733        F  0.37491871  0.98309091  0.54318110    -0.15600
F734        F  0.47450124  0.12731565  0.59593652    -0.14200
F735        F  0.31011852  0.02757902  0.59613018    -0.14200
F736        F  0.42028101  0.20152696  0.62396292    -0.15600
C737        C  0.42379428  0.32186124  0.56063294     0.14500
C738        C  0.39386384  0.32169874  0.57618520     0.01400
C739        C  0.38619893  0.35867376  0.57759606     0.16400
C740        C  0.41036499  0.39670086  0.56438009     0.25800
C741        C  0.44242242  0.39799299  0.54974179    -0.40500
C742        C  0.44797081  0.35986422  0.54745629     0.32900
C743        C  0.37779008  0.28749014  0.59335091     0.01500
F744        F  0.35790594  0.35924470  0.59282311    -0.12800
F745        F  0.47927144  0.36092845  0.53354343    -0.13400
C746        C  0.40535467  0.29629090  0.61138878     0.16400
C747        C  0.39137736  0.26469441  0.62793882     0.25800
C748        C  0.34964090  0.22349077  0.62668390    -0.40500
C749        C  0.32212487  0.21442486  0.60849484     0.32800
C750        C  0.33615030  0.24642234  0.59188227     0.14500
F751        F  0.44603882  0.33560364  0.61288072    -0.12800
F752        F  0.28137935  0.17520450  0.60711466    -0.13300
F753        F  0.41916347  0.27369573  0.64504497    -0.15600
F754        F  0.30916502  0.23762905  0.57449397    -0.14200
F755        F  0.43213785  0.28669644  0.55937698    -0.14200
F756        F  0.40498383  0.43352407  0.56688436    -0.15600
C757        C  0.97631164  0.25111315  0.99651776     0.14500
C758        C  0.00394426  0.28672096  0.01055483     0.01400
C759        C  0.02928091  0.27907790  0.02621649     0.16400
C760        C  0.02721978  0.23676428  0.02761871     0.25800
C761        C  0.99865480  0.20113536  0.01388546    -0.40500
C762        C  0.97317278  0.20861059  0.99840327     0.32900
C763        C  0.00599808  0.33147936  0.00874161     0.01500
F764        F  0.05550004  0.31231998  0.04033825    -0.12800
F765        F  0.94672184  0.17515307  0.98439406    -0.13400
C766        C  0.96549940  0.33355856  0.00814790     0.16400
C767        C  0.96717747  0.37536469  0.00583504     0.25800
C768        C  0.00930861  0.41609602  0.00495089    -0.40500
C769        C  0.04979091  0.41424776  0.00554164     0.32800
C770        C  0.04818492  0.37226586  0.00712594     0.14500
F771        F  0.92420645  0.29512330  0.01020547    -0.12800
F772        F  0.09087682  0.45322362  0.00495155    -0.13300
F773        F  0.92757331  0.37617060  0.00460355    -0.15600
F774        F  0.08785439  0.37145473  0.00679782    -0.14200
F775        F  0.95336997  0.25786188  0.98049075    -0.14200
F776        F  0.05245781  0.23033681  0.04255613    -0.15600
C777        C  0.97227168  0.62690328  0.98585313     0.14500
C778        C  0.00365539  0.66704473  0.99639557     0.01400
C779        C  0.03618578  0.66613880  0.01004027     0.16400
C780        C  0.03766602  0.62586460  0.01282433     0.25800
C781        C  0.00651658  0.58588478  0.00208528    -0.40500
C782        C  0.97348026  0.58663870  0.98880146     0.32900
C783        C  0.00171933  0.70952157  0.99355271     0.01500
F784        F  0.06624771  0.70420228  0.02079695    -0.12800
F785        F  0.94250993  0.54825984  0.97855667    -0.13400
C786        C  0.96248143  0.71091957  0.99955742     0.16400
C787        C  0.96138146  0.75158251  0.99817971     0.25800
C788        C  0.99981039  0.79206678  0.99084722    -0.40500
C789        C  0.03836354  0.78983805  0.98384870     0.32800
C790        C  0.03924498  0.74901387  0.98524287     0.14500
F791        F  0.92579916  0.67323379  0.00771573    -0.12800
F792        F  0.07576296  0.82733772  0.97604435    -0.13300
F793        F  0.92329237  0.75150957  0.00504206    -0.15600
F794        F  0.07699563  0.74810834  0.97862267    -0.14200
F795        F  0.94095690  0.62695728  0.97237045    -0.14200
F796        F  0.07006603  0.62608703  0.02562943    -0.15600
C797        C  0.10030924  0.63435301  0.95234378     0.14500
C798        C  0.07322072  0.62710021  0.93418049     0.01400
C799        C  0.03161876  0.58598666  0.93219521     0.16400
C800        C  0.01703844  0.55292731  0.94834641     0.25800
C801        C  0.04352896  0.56100871  0.96681092    -0.40500
C802        C  0.08557379  0.60161359  0.96850647     0.32900
C803        C  0.08858776  0.66318669  0.91768498     0.01500
F804        F  0.00502765  0.57813663  0.91473504    -0.12800
F805        F  0.11172433  0.61003784  0.98618818    -0.13400
C806        C  0.12981536  0.67727065  0.90677805     0.16400
C807        C  0.14785630  0.71533668  0.89335671     0.25800
C808        C  0.12489447  0.73985064  0.89054320    -0.40500
C809        C  0.08275893  0.72482024  0.90075909     0.32800
C810        C  0.06462607  0.68661329  0.91423601     0.14500
F811        F  0.15330034  0.65491118  0.90969843    -0.12800
F812        F  0.06047296  0.74853866  0.89852357    -0.13300
F813        F  0.18873238  0.72946547  0.88370983    -0.15600
F814        F  0.02512270  0.67411862  0.92489045    -0.14200
F815        F  0.14033203  0.67401875  0.95477631    -0.14200
F816        F  0.97624614  0.51393960  0.94641545    -0.15600
C817        C  0.09914392  0.44769493  0.89504097     0.14500
C818        C  0.07446756  0.41993114  0.91241474     0.01400
C819        C  0.06765243  0.37555797  0.91391893     0.16400
C820        C  0.08789697  0.36035849  0.89906970     0.25800
C821        C  0.11513326  0.38930104  0.88259051    -0.40500
C822        C  0.11955087  0.43250870  0.88025660     0.32900
C823        C  0.06076000  0.43895842  0.93028522     0.01500
F824        F  0.04464738  0.34841857  0.93075511    -0.12800
F825        F  0.14624034  0.46106014  0.86454017    -0.13400
C826        C  0.01489283  0.41871936  0.93666619     0.16400
C827        C  0.00291444  0.43508144  0.95457183     0.25800
C828        C  0.03670190  0.47154280  0.96640906    -0.40500
C829        C  0.08243247  0.49201621  0.95993008     0.32800
C830        C  0.09438807  0.47593601  0.94197199     0.14500
F831        F  0.98184241  0.38313394  0.92556626    -0.12800
F832        F  0.11561716  0.52670774  0.97139985    -0.13300
F833        F  0.95839961  0.41533903  0.96043602    -0.15600
F834        F  0.13908165  0.49530114  0.93646400    -0.14200
F835        F  0.10544825  0.49038080  0.89308831    -0.14200
F836        F  0.08404466  0.31881242  0.90174188    -0.15600
C837        C  0.25098235  0.27836125  0.98134342     0.14500
C838        C  0.28916080  0.28391881  0.99260809     0.01400
C839        C  0.28635837  0.24701906  0.00407433     0.16400
C840        C  0.24517770  0.20553461  0.00503232     0.25800
C841        C  0.20605095  0.20032847  0.99444968    -0.40500
C842        C  0.20985127  0.23700719  0.98218738     0.32900
C843        C  0.33082127  0.32917385  0.99357732     0.01500
F844        F  0.32293566  0.25192294  0.01520161    -0.12800
F845        F  0.17357245  0.23321598  0.97121349    -0.13400
C846        C  0.32999551  0.36491562  0.00454042     0.16400
C847        C  0.36938916  0.40768929  0.00591770     0.25800
C848        C  0.40996263  0.41537220  0.99616620    -0.40500
C849        C  0.41066133  0.37986605  0.98492131     0.32800
C850        C  0.37138408  0.33687777  0.98376496     0.14500
F851        F  0.29112116  0.35802575  0.01420654    -0.12800
F852        F  0.44956716  0.38681712  0.97528253    -0.13300
F853        F  0.36802464  0.44164375  0.01675636    -0.15600
F854        F  0.37274956  0.30288005  0.97295309    -0.14200
F855        F  0.25340993  0.31342932  0.96979314    -0.14200
F856        F  0.24315195  0.17145266  0.01725028    -0.15600
C857        C  0.66063546  0.63104879  0.99756749     0.14500
C858        C  0.66220541  0.66846151  0.00804956     0.01400
C859        C  0.62149697  0.66521526  0.01549361     0.16400
C860        C  0.57979779  0.62529413  0.01231582     0.25800
C861        C  0.57835045  0.58791137  0.00194931    -0.40500
C862        C  0.61898259  0.59093095  0.99466244     0.32900
C863        C  0.70595439  0.71167721  0.01013832     0.01500
F864        F  0.62231020  0.70056762  0.02606666    -0.12800
F865        F  0.61831361  0.55476295  0.98502622    -0.13400
C866        C  0.71154069  0.75114035  0.00010331     0.16400
C867        C  0.75350100  0.79154730  0.00074088     0.25800
C868        C  0.79106629  0.79332197  0.01140820    -0.40500
C869        C  0.78493204  0.75382918  0.02195282     0.32800
C870        C  0.74270909  0.71339763  0.02131523     0.14500
F871        F  0.67676620  0.74998041  0.98881264    -0.12800
F872        F  0.81980827  0.75410753  0.03274432    -0.13300
F873        F  0.75770628  0.82822479  0.98994778    -0.15600
F874        F  0.73773258  0.67579099  0.03150669    -0.14200
F875        F  0.69937548  0.63368415  0.98984789    -0.14200
F876        F  0.54084308  0.62275442  0.01964087    -0.15600
C877        C  0.56589365  0.59450934  0.93074110     0.14500
C878        C  0.55185998  0.62701369  0.92913646     0.01400
C879        C  0.52326867  0.62864551  0.94502613     0.16400
C880        C  0.50878182  0.59809720  0.96216815     0.25800
C881        C  0.52277482  0.56564361  0.96369810    -0.40500
C882        C  0.55137214  0.56398569  0.94790006     0.32900
C883        C  0.56783972  0.66017835  0.91130250     0.01500
F884        F  0.51028060  0.66057751  0.94417600    -0.12800
F885        F  0.56505715  0.53265187  0.94907530    -0.13400
C886        C  0.53614673  0.66322450  0.89794323     0.16400
C887        C  0.55076392  0.69872331  0.88313016     0.25800
C888        C  0.59728310  0.73136943  0.88133842    -0.40500
C889        C  0.62924963  0.72662827  0.89367498     0.32800
C890        C  0.61464528  0.69128139  0.90858846     0.14500
F891        F  0.49088773  0.63273606  0.89982353    -0.12800
F892        F  0.67428535  0.75824073  0.89238430    -0.13300
F893        F  0.51939039  0.70265801  0.87126408    -0.15600
F894        F  0.64592407  0.68936345  0.92141450    -0.14200
F895        F  0.59323104  0.59204577  0.91556218    -0.14200
F896        F  0.48137623  0.60033121  0.97738078    -0.15600
C897        C  0.41258373  0.44896443  0.92643945     0.14500
C898        C  0.37369279  0.45350055  0.92791680     0.01400
C899        C  0.36662142  0.47299293  0.94625076     0.16400
C900        C  0.39753772  0.48677016  0.96315284     0.25800
C901        C  0.43578085  0.48106309  0.96195320    -0.40500
C902        C  0.44348690  0.46265804  0.94338980     0.32900
C903        C  0.33876650  0.43536632  0.91104161     0.01500
F904        F  0.32882128  0.47702215  0.94806603    -0.12800
F905        F  0.48005215  0.45655480  0.94199860    -0.13400
C906        C  0.31005698  0.38805167  0.90893664     0.16400
C907        C  0.27289116  0.37069838  0.89500331     0.25800
C908        C  0.26439730  0.40050054  0.88287786    -0.40500
C909        C  0.29423367  0.44776178  0.88436320     0.32800
C910        C  0.33117959  0.46510800  0.89839493     0.14500
F911        F  0.31640748  0.35887762  0.92137544    -0.12800
F912        F  0.28617670  0.47706395  0.87293522    -0.13300
F913        F  0.24356916  0.32505248  0.89431089    -0.15600
F914        F  0.35861136  0.51092152  0.90023619    -0.14200
F915        F  0.42012039  0.43063396  0.90871859    -0.14200
F916        F  0.38961486  0.50460977  0.98094589    -0.15600
C917        C  0.62806027  0.96393786  0.99348855     0.14500
C918        C  0.66883332  0.00460619  0.98872370     0.01400
C919        C  0.66699963  0.04490393  0.98572611     0.16400
C920        C  0.62567459  0.04466223  0.98795373     0.25800
C921        C  0.58526311  0.00410363  0.99287320    -0.40500
C922        C  0.58668402  0.96365978  0.99534150     0.32900
C923        C  0.71325333  0.00518062  0.98786984     0.01500
F924        F  0.70521754  0.08455186  0.98054158    -0.12800
F925        F  0.54811763  0.92407069  0.00018331    -0.13400
C926        C  0.71831218  0.97338673  0.97540526     0.16400
C927        C  0.75876442  0.97146233  0.97610925     0.25800
C928        C  0.79560021  0.00197167  0.98895786    -0.40500
C929        C  0.79105284  0.03498742  0.00076665     0.32800
C930        C  0.75035698  0.03627383  0.00035268     0.14500
F931        F  0.68393799  0.94397677  0.96252271    -0.12800
F932        F  0.82513074  0.06475169  0.01370138    -0.13300
F933        F  0.76171555  0.93954255  0.96424023    -0.15600
F934        F  0.74660179  0.06674001  0.01300941    -0.14200
F935        F  0.62851425  0.92470404  0.99720278    -0.14200
F936        F  0.62503625  0.08411117  0.98537689    -0.15600
C937        C  0.36418422  0.03388581  0.00252222     0.14500
C938        C  0.33086051  0.99826407  0.01507276     0.01400
C939        C  0.34004747  0.96516197  0.02336171     0.16400
C940        C  0.38179872  0.96758859  0.01913082     0.25800
C941        C  0.41499600  0.00309488  0.00654703    -0.40500
C942        C  0.40595444  0.03629482  0.99830954     0.32900
C943        C  0.28591058  0.99478158  0.01865643     0.01500
F944        F  0.30864300  0.93066056  0.03566064    -0.12800
F945        F  0.43765118  0.07108836  0.98626025    -0.13400
C946        C  0.24600648  0.95714096  0.01084397     0.16400
C947        C  0.20424445  0.95616208  0.01187580     0.25800
C948        C  0.20158913  0.99322802  0.02059119    -0.40500
C949        C  0.24125920  0.02946567  0.02976221     0.32800
C950        C  0.28294715  0.03020148  0.02873930     0.14500
F951        F  0.24792679  0.92241168  0.00104136    -0.12800
F952        F  0.24021328  0.06499881  0.03918310    -0.13300
F953        F  0.16706586  0.91992431  0.00319737    -0.15600
F954        F  0.32077218  0.06608884  0.03719567    -0.14200
F955        F  0.35578705  0.06575718  0.99394574    -0.14200
F956        F  0.38980070  0.93504696  0.02716597    -0.15600
C957        C  0.33290277  0.91781055  0.89876140     0.14500
C958        C  0.33045312  0.93931621  0.91743929     0.01400
C959        C  0.29085476  0.94152045  0.92173034     0.16400
C960        C  0.25292313  0.91960257  0.90824811     0.25800
C961        C  0.25438266  0.89552413  0.89030982    -0.40500
C962        C  0.29509486  0.89606830  0.88526108     0.32900
C963        C  0.36624427  0.95316415  0.93385359     0.01500
F964        F  0.28809446  0.96257451  0.93963145    -0.12800
F965        F  0.29689187  0.87234010  0.86819642    -0.13400
C966        C  0.40600620  0.99609655  0.93319649     0.16400
C967        C  0.43976791  0.00808651  0.94879576     0.25800
C968        C  0.43402710  0.97726282  0.96518847    -0.40500
C969        C  0.39440041  0.93422765  0.96567779     0.32800
C970        C  0.36078320  0.92226403  0.95011037     0.14500
F971        F  0.41180541  0.02639701  0.91761413    -0.12800
F972        F  0.38819994  0.90397174  0.98134620    -0.13300
F973        F  0.47758212  0.05009798  0.94823391    -0.15600
F974        F  0.32275253  0.88040508  0.95082979    -0.14200
F975        F  0.37077675  0.91508961  0.89445482    -0.14200
F976        F  0.21389543  0.91951108  0.91334020    -0.15600
C977        C  0.56421493  0.98470662  0.92788997     0.14500
C978        C  0.54756251  0.93761020  0.92615578     0.01400
C979        C  0.51433623  0.90776582  0.94074263     0.16400
C980        C  0.49932327  0.92485148  0.95724596     0.25800
C981        C  0.51747763  0.97201271  0.95952122    -0.40500
C982        C  0.54918420  0.00177162  0.94444176     0.32900
C983        C  0.56638697  0.91946355  0.90998001     0.01500
F984        F  0.49843875  0.86222974  0.93975594    -0.12800
F985        F  0.56698574  0.04746747  0.94633761    -0.13400
C986        C  0.61268042  0.93160281  0.91058482     0.16400
C987        C  0.62923170  0.91030156  0.89699207     0.25800
C988        C  0.59982749  0.87685677  0.88251776    -0.40500
C989        C  0.55404391  0.86600929  0.88135376     0.32800
C990        C  0.53746087  0.88718438  0.89494467     0.14500
F991        F  0.64117648  0.96209919  0.92519881    -0.12800
F992        F  0.52500547  0.83350326  0.86759473    -0.13300
F993        F  0.67327248  0.92038463  0.89876544    -0.15600
F994        F  0.49281861  0.87531765  0.89384525    -0.14200
F995        F  0.59575679  0.01416583  0.91382321    -0.14200
F996        F  0.46927672  0.89557847  0.97185946    -0.15600
C997        C  0.94098540  0.62986327  0.08852799     0.14500
C998        C  0.92387621  0.58268593  0.08703473     0.01400
C999        C  0.88484750  0.55246778  0.09865106     0.16400
C1000       C  0.86206128  0.56900423  0.11100280     0.25800
C1001       C  0.87791746  0.61599094  0.11184370    -0.40500
C1002       C  0.91786898  0.64646834  0.10078345     0.32900
C1003       C  0.94254336  0.56437749  0.07119213     0.01500
F1004       F  0.86775671  0.50677515  0.09723323    -0.12800
F1005       F  0.93304250  0.69190503  0.10103732    -0.13400
C1006       C  0.98544778  0.56816521  0.07397483     0.16400
C1007       C  0.00243339  0.55070125  0.05849603     0.25800
C1008       C  0.97668767  0.52973071  0.04013103    -0.40500
C1009       C  0.93345893  0.52524027  0.03765980     0.32800
C1010       C  0.91660245  0.54261910  0.05302282     0.14500
F1011       F  0.01075539  0.58891635  0.09155142    -0.12800
F1012       F  0.90810248  0.50495209  0.02003073    -0.13300
F1013       F  0.04442209  0.55550180  0.06103097    -0.15600
F1014       F  0.87536936  0.53933860  0.04993485    -0.14200
F1015       F  0.97830764  0.65945593  0.07708996    -0.14200
F1016       F  0.82329709  0.53905617  0.12145546    -0.15600
C1017       C  0.61921004  0.52860679  0.05174606     0.14500
C1018       C  0.61858397  0.55613812  0.06838968     0.01400
C1019       C  0.58318269  0.56635284  0.06924618     0.16400
C1020       C  0.54964289  0.55033905  0.05338461     0.25800
C1021       C  0.55119079  0.52406827  0.03642965    -0.40500
C1022       C  0.58565664  0.51259542  0.03592484     0.32900
C1023       C  0.65571447  0.57524137  0.08440466     0.01500
F1024       F  0.58149125  0.59230251  0.08531819    -0.12800
F1025       F  0.58782727  0.48749596  0.01956362    -0.13400
C1026       C  0.68538047  0.62262212  0.08579680     0.16400
C1027       C  0.72298325  0.64037272  0.09957475     0.25800
C1028       C  0.73123483  0.61102142  0.11222295    -0.40500
C1029       C  0.70072038  0.56380198  0.11131376     0.32800
C1030       C  0.66327452  0.54605251  0.09752151     0.14500
F1031       F  0.67942419  0.65142864  0.07289238    -0.12800
F1032       F  0.70851278  0.53477165  0.12310775    -0.13300
F1033       F  0.75291745  0.68590510  0.09961115    -0.15600
F1034       F  0.63501282  0.50022975  0.09652014    -0.14200
F1035       F  0.65349276  0.51894131  0.05030680    -0.14200
F1036       F  0.51657986  0.56178024  0.05415099    -0.15600
C1037       C  0.63639356  0.96176543  0.31400745     0.14500
C1038       C  0.66646129  0.00094852  0.32555262     0.01400
C1039       C  0.69713736  0.99880174  0.33998441     0.16400
C1040       C  0.69781700  0.95812014  0.34267884     0.25800
C1041       C  0.66753273  0.91891596  0.33116314    -0.40500
C1042       C  0.63644760  0.92099352  0.31702193     0.32900
C1043       C  0.66426714  0.04329108  0.32301047     0.01500
F1044       F  0.72600292  0.03589870  0.35164809    -0.12800
F1045       F  0.60617166  0.88340972  0.30605666    -0.13400
C1046       C  0.62301828  0.04257399  0.32685101     0.16400
C1047       C  0.62022087  0.08207887  0.32445180     0.25800
C1048       C  0.65889616  0.12343469  0.31846225    -0.40500
C1049       C  0.70027515  0.12411589  0.31454630     0.32800
C1050       C  0.70283773  0.08431658  0.31668915     0.14500
F1051       F  0.58575620  0.00384487  0.33380454    -0.12800
F1052       F  0.73839724  0.16341362  0.30883472    -0.13300
F1053       F  0.58031343  0.08038359  0.32933239    -0.15600
F1054       F  0.74297502  0.08584266  0.31258603    -0.14200
F1055       F  0.60727726  0.96320815  0.29957266    -0.14200
F1056       F  0.72864567  0.95717858  0.35618127    -0.15600
C1057       C  0.71881602  0.71198974  0.33893395     0.14500
C1058       C  0.67799896  0.66989269  0.34076997     0.01400
C1059       C  0.63620680  0.66947295  0.34106370     0.16400
C1060       C  0.63513344  0.70995813  0.33886175     0.25800
C1061       C  0.67584228  0.75191781  0.33696604    -0.40500
C1062       C  0.71771337  0.75267232  0.33721828     0.32900
C1063       C  0.67842914  0.62616878  0.34097604     0.01500
F1064       F  0.59625854  0.62967730  0.34346711    -0.12800
F1065       F  0.75751999  0.79290418  0.33588678    -0.13400
C1066       C  0.70460692  0.61786199  0.35585221     0.16400
C1067       C  0.70493438  0.57655555  0.35550231     0.25800
C1068       C  0.67823800  0.54243955  0.34059022    -0.40500
C1069       C  0.65186332  0.55085787  0.32588348     0.32800
C1070       C  0.65243072  0.59231583  0.32591783     0.14500
F1071       F  0.72936945  0.64946211  0.37089421    -0.12800
F1072       F  0.62693935  0.51968506  0.31070160    -0.13300
F1073       F  0.73080821  0.56970746  0.36991571    -0.15600
F1074       F  0.62853186  0.59994555  0.31068293    -0.14200
F1075       F  0.75968871  0.71365284  0.33820532    -0.14200
F1076       F  0.59420168  0.70817551  0.33829355    -0.15600
C1077       C  0.64816818  0.89371224  0.40675873     0.14500
C1078       C  0.60642876  0.89269909  0.40474585     0.01400
C1079       C  0.58161899  0.87747635  0.38570910     0.16400
C1080       C  0.59839987  0.86366646  0.36872120     0.25800
C1081       C  0.64062462  0.86549409  0.37041439    -0.40500
C1082       C  0.66537422  0.88040509  0.38959652     0.32900
C1083       C  0.58899794  0.90965471  0.42179879     0.01500
F1084       F  0.54120228  0.87643258  0.38358000    -0.12800
F1085       F  0.70643872  0.88279585  0.39151333    -0.13400
C1086       C  0.59758280  0.95462441  0.42074896     0.16400
C1087       C  0.57329892  0.96845619  0.43379826     0.25800
C1088       C  0.54038394  0.93746481  0.44805863    -0.40500
C1089       C  0.53363213  0.89323688  0.44999617     0.32800
C1090       C  0.55786666  0.87933308  0.43687530     0.14500
F1091       F  0.62748997  0.98417583  0.40616364    -0.12800
F1092       F  0.50192665  0.86301475  0.46378640    -0.13300
F1093       F  0.58018057  0.01134417  0.43181010    -0.15600
F1094       F  0.54913758  0.83567585  0.43798039    -0.14200
F1095       F  0.67235557  0.90813698  0.42516384    -0.14200
F1096       F  0.57329777  0.84818387  0.35061522    -0.15600
C1097       C  0.66725591  0.75130620  0.40355090     0.14500
C1098       C  0.62098841  0.72542161  0.40918330     0.01400
C1099       C  0.58834048  0.73015076  0.39739878     0.16400
C1100       C  0.60150604  0.75893859  0.37966078     0.25800
C1101       C  0.64758496  0.78372853  0.37355240    -0.40500
C1102       C  0.68053054  0.78058056  0.38591505     0.32900
C1103       C  0.60550251  0.68938392  0.42556673     0.01500
F1104       F  0.54333238  0.70472260  0.40233738    -0.12800
F1105       F  0.72536237  0.80510401  0.38056601    -0.13400
C1106       C  0.58296886  0.69139676  0.44403086     0.16400
C1107       C  0.55969938  0.65296116  0.45711158     0.25800
C1108       C  0.55855764  0.61219358  0.45173996    -0.40500
C1109       C  0.58353271  0.61112495  0.43407352     0.32800
C1110       C  0.60709110  0.64958970  0.42110976     0.14500
F1111       F  0.58138585  0.72971382  0.44865402    -0.12800
F1112       F  0.58239938  0.57182351  0.42858435    -0.13300
F1113       F  0.53553578  0.65441931  0.47410498    -0.15600
F1114       F  0.62823171  0.64681521  0.40320396    -0.14200
F1115       F  0.69928529  0.74735494  0.41484340    -0.14200
F1116       F  0.56900303  0.76071473  0.36773198    -0.15600
C1117       C  0.68484321  0.74932664  0.26908669     0.14500
C1118       C  0.73009487  0.77484867  0.26184865     0.01400
C1119       C  0.76055833  0.81551991  0.27228510     0.16400
C1120       C  0.74630935  0.82993944  0.29004899     0.25800
C1121       C  0.70105412  0.80458291  0.29729965    -0.40500
C1122       C  0.67023188  0.76441209  0.28654964     0.32900
C1123       C  0.74699742  0.75744983  0.24463838     0.01500
F1124       F  0.80465173  0.84030596  0.26576349    -0.12800
F1125       F  0.62606895  0.73990312  0.29297476    -0.13400
C1126       C  0.76450803  0.78235719  0.22563506     0.16400
C1127       C  0.78661709  0.76918046  0.21079085     0.25800
C1128       C  0.79142968  0.73108428  0.21485834    -0.40500
C1129       C  0.77232203  0.70519002  0.23342788     0.32800
C1130       C  0.75009591  0.71818797  0.24820012     0.14500
F1131       F  0.76182451  0.82042544  0.22193750    -0.12800
F1132       F  0.77774217  0.66894598  0.23782508    -0.13300
F1133       F  0.80576328  0.79506230  0.19311617    -0.15600
F1134       F  0.73446565  0.69436898  0.26670135    -0.14200
F1135       F  0.65498082  0.70981497  0.25924640    -0.14200
F1136       F  0.77699182  0.86808594  0.30054487    -0.15600
C1137       C  0.28754250  0.00166346  0.34042661     0.14500
C1138       C  0.32996330  0.00383965  0.33804665     0.01400
C1139       C  0.33076486  0.96312134  0.33476276     0.16400
C1140       C  0.29013190  0.92155241  0.33287652     0.25800
C1141       C  0.24795358  0.91959228  0.33499810    -0.40500
C1142       C  0.24690072  0.95976444  0.33913446     0.32900
C1143       C  0.37320593  0.04846656  0.33760123     0.01500
F1144       F  0.37103223  0.96362312  0.33334245    -0.12800
F1145       F  0.20643280  0.95833750  0.34185641    -0.13400
C1146       C  0.38443941  0.08075604  0.35402878     0.16400
C1147       C  0.42511321  0.12289260  0.35308253     0.25800
C1148       C  0.45587398  0.13271849  0.33611199    -0.40500
C1149       C  0.44468054  0.10042449  0.31977675     0.32800
C1150       C  0.40352825  0.05914363  0.32033601     0.14500
F1151       F  0.35653097  0.07120423  0.37118165    -0.12800
F1152       F  0.47287603  0.10960037  0.30275263    -0.13300
F1153       F  0.43499019  0.15361931  0.36898413    -0.15600
F1154       F  0.39273987  0.02999932  0.30363941    -0.14200
F1155       F  0.28533285  0.04019695  0.34333897    -0.14200
F1156       F  0.29189895  0.88315417  0.32877043    -0.15600
C1157       C  0.00192082  0.69371673  0.33746198     0.14500
C1158       C  0.00180379  0.65987114  0.32445654     0.01400
C1159       C  0.04175368  0.66899170  0.31354409     0.16400
C1160       C  0.08124435  0.71146280  0.31553376     0.25800
C1161       C  0.08127958  0.74536324  0.32842716    -0.40500
C1162       C  0.04141112  0.73626761  0.33938513     0.32900
C1163       C  0.96015335  0.61483168  0.32257968     0.01500
F1164       F  0.04232507  0.63684193  0.30083938    -0.12800
F1165       F  0.04080473  0.76866737  0.35187419    -0.13400
C1166       C  0.91996610  0.61114508  0.31425208     0.16400
C1167       C  0.87972749  0.56891289  0.31376912     0.25800
C1168       C  0.87919833  0.52966189  0.32148913    -0.40500
C1169       C  0.92000883  0.53320968  0.32906346     0.32800
C1170       C  0.96008337  0.57551654  0.32969339     0.14500
F1171       F  0.91973453  0.64858226  0.30668962    -0.12800
F1172       F  0.92060595  0.49621397  0.33700954    -0.13300
F1173       F  0.84127461  0.56639543  0.30578857    -0.15600
F1174       F  0.99838027  0.57844948  0.33813734    -0.14200
F1175       F  0.96398203  0.68518089  0.34857601    -0.14200
F1176       F  0.11972035  0.71938521  0.30512261    -0.15600
C1177       C  0.09915579  0.74461977  0.40239895     0.14500
C1178       C  0.10064664  0.70413844  0.40049172     0.01400
C1179       C  0.11964088  0.69655316  0.38208250     0.16400
C1180       C  0.13682789  0.72900237  0.36574272     0.25800
C1181       C  0.13448480  0.76910027  0.36740666    -0.40500
C1182       C  0.11568069  0.77678907  0.38587474     0.32900
C1183       C  0.08217847  0.66934979  0.41753111     0.01500
F1184       F  0.12163833  0.65770650  0.38001708    -0.12800
F1185       F  0.11213133  0.81480391  0.38758998    -0.13400
C1186       C  0.04258188  0.62730786  0.41383919     0.16400
C1187       C  0.02820027  0.59210958  0.42877241     0.25800
C1188       C  0.05338754  0.59837999  0.44751718    -0.40500
C1189       C  0.09179418  0.64109847  0.45169046     0.32800
C1190       C  0.10598806  0.67653108  0.43680390     0.14500
F1191       F  0.01900360  0.61982960  0.39535183    -0.12800
F1192       F  0.11720547  0.64740811  0.46944476    -0.13300
F1193       F  0.99118938  0.55091525  0.42441209    -0.15600
F1194       F  0.14460271  0.71683567  0.44051937    -0.14200
F1195       F  0.08058021  0.75230633  0.42000458    -0.14200
F1196       F  0.15556503  0.72125268  0.34821713    -0.15600
C1197       C  0.25296271  0.90507357  0.40141936     0.14500
C1198       C  0.28453486  0.88990800  0.40329322     0.01400
C1199       C  0.28203034  0.85655871  0.38917108     0.16400
C1200       C  0.24946237  0.83978000  0.37288381     0.25800
C1201       C  0.21931412  0.85654259  0.37033124    -0.40500
C1202       C  0.22057960  0.88855385  0.38499309     0.32900
C1203       C  0.32224970  0.91084019  0.41890339     0.01500
F1204       F  0.31252284  0.84178027  0.39061765    -0.12800
F1205       F  0.19138615  0.90479933  0.38294506    -0.13400
C1206       C  0.32001728  0.88837817  0.43808689     0.16400
C1207       C  0.35818704  0.90525837  0.45146941     0.25800
C1208       C  0.39917483  0.94459522  0.44574032    -0.40500
C1209       C  0.40086133  0.96788362  0.42688541     0.32800
C1210       C  0.36253050  0.95128557  0.41363022     0.14500
F1211       F  0.28148980  0.84909400  0.44336819    -0.12800
F1212       F  0.44023879  0.00558012  0.42090584    -0.13300
F1213       F  0.35611854  0.88166949  0.46936014    -0.15600
F1214       F  0.36536574  0.97332163  0.39508052    -0.14200
F1215       F  0.25435578  0.93670737  0.41514635    -0.14200
F1216       F  0.24895693  0.80902719  0.35885276    -0.15600
C1217       C  0.00598010  0.80544661  0.23105476     0.14500
C1218       C  0.01402650  0.77329581  0.24135326     0.01400
C1219       C  0.98732688  0.72698505  0.23589861     0.16400
C1220       C  0.95134306  0.71276881  0.22133103     0.25800
C1221       C  0.94192110  0.74473891  0.21181104    -0.40500
C1222       C  0.97033466  0.79130148  0.21636522     0.32900
C1223       C  0.04714587  0.78747958  0.25918906     0.01500
F1224       F  0.99412063  0.69522655  0.24579077    -0.12800
F1225       F  0.96198183  0.82283958  0.20734815    -0.13400
C1226       C  0.03925572  0.80513764  0.27799502     0.16400
C1227       C  0.06892184  0.81654675  0.29534767     0.25800
C1228       C  0.10722910  0.81093084  0.29415422    -0.40500
C1229       C  0.11575751  0.79418997  0.27522006     0.32800
C1230       C  0.08570126  0.78219346  0.25790583     0.14500
F1231       F  0.00202128  0.81013954  0.27974441    -0.12800
F1232       F  0.15270130  0.78871124  0.27367062    -0.13300
F1233       F  0.06012490  0.83280126  0.31345275    -0.15600
F1234       F  0.09420572  0.76551881  0.23986769    -0.14200
F1235       F  0.03164240  0.85041721  0.23584608    -0.14200
F1236       F  0.92378376  0.66754715  0.21762351    -0.15600
C1237       C  0.00653536  0.40866258  0.06949645     0.14500
C1238       C  0.96025474  0.37829183  0.07386171     0.01400
C1239       C  0.92687629  0.38432842  0.06345137     0.16400
C1240       C  0.93937845  0.41868258  0.04814427     0.25800
C1241       C  0.98550679  0.44746102  0.04287880    -0.40500
C1242       C  0.01906826  0.44319796  0.05420631     0.32900
C1243       C  0.94586678  0.33841933  0.08815489     0.01500
F1244       F  0.88190984  0.35494985  0.06713615    -0.12800
F1245       F  0.06390777  0.47111442  0.04962765    -0.13400
C1246       C  0.92060907  0.33399361  0.10670221     0.16400
C1247       C  0.89934729  0.29284843  0.11801271     0.25800
C1248       C  0.90273018  0.25534731  0.11089205    -0.40500
C1249       C  0.93009241  0.26044096  0.09305130     0.32800
C1250       C  0.95190224  0.30190387  0.08185247     0.14500
F1251       F  0.91458797  0.36883675  0.11319327    -0.12800
F1252       F  0.93367336  0.22457204  0.08587192    -0.13300
F1253       F  0.87248760  0.28841687  0.13500973    -0.15600
F1254       F  0.97614034  0.30533487  0.06398194    -0.14200
F1255       F  0.03943293  0.40409728  0.07963071    -0.14200
F1256       F  0.90624938  0.42143966  0.03724152    -0.15600
C1257       C  0.71356848  0.07343223  0.07396901     0.14500
C1258       C  0.67571351  0.07850074  0.07849362     0.01400
C1259       C  0.67565035  0.10198476  0.09692524     0.16400
C1260       C  0.71375952  0.12179347  0.11025609     0.25800
C1261       C  0.75231437  0.11819323  0.10531973    -0.40500
C1262       C  0.75180645  0.09343354  0.08725838     0.32900
C1263       C  0.63799569  0.06287121  0.06309072     0.01500
F1264       F  0.63900284  0.10655645  0.10167450    -0.12800
F1265       F  0.78883804  0.08970752  0.08226073    -0.13400
C1266       C  0.60854291  0.01621491  0.05944106     0.16400
C1267       C  0.57321402  0.00204268  0.04460998     0.25800
C1268       C  0.56773877  0.03439877  0.03293766    -0.40500
C1269       C  0.59713303  0.08099122  0.03663859     0.32800
C1270       C  0.63187189  0.09514147  0.05172317     0.14500
F1271       F  0.61400217  0.98456177  0.07026599    -0.12800
F1272       F  0.59298002  0.11270588  0.02517475    -0.13300
F1273       F  0.54457465  0.95681473  0.04144872    -0.15600
F1274       F  0.66051920  0.14041246  0.05481311    -0.14200
F1275       F  0.71421090  0.05085905  0.05620480    -0.14200
F1276       F  0.71373754  0.14583491  0.12757431    -0.15600
C1277       C  0.73246759  0.02543004  0.24816814     0.14500
C1278       C  0.73266340  0.98491393  0.24360578     0.01400
C1279       C  0.75003668  0.98049804  0.22394921     0.16400
C1280       C  0.77063678  0.01758791  0.20988049     0.25800
C1281       C  0.77385878  0.05940216  0.21526954    -0.40500
C1282       C  0.75303277  0.06245988  0.23413200     0.32900
C1283       C  0.72170851  0.95084857  0.26072559     0.01500
F1284       F  0.75086156  0.94180243  0.21928988    -0.12800
F1285       F  0.75590639  0.10251020  0.23973407    -0.13400
C1286       C  0.68398083  0.90652227  0.25933828     0.16400
C1287       C  0.67282827  0.87616232  0.27653787     0.25800
C1288       C  0.69953375  0.88984747  0.29519226    -0.40500
C1289       C  0.73875221  0.93319799  0.29591094     0.32800
C1290       C  0.74956039  0.96348151  0.27891998     0.14500
F1291       F  0.65701339  0.89341611  0.24175679    -0.12800
F1292       F  0.76589581  0.94661218  0.31343640    -0.13300
F1293       F  0.63476141  0.83441612  0.27545565    -0.15600
F1294       F  0.78711449  0.00557740  0.28029683    -0.14200
F1295       F  0.71515759  0.03009926  0.26695562    -0.14200
F1296       F  0.79149213  0.01415051  0.19202688    -0.15600
C1297       C  0.46058398  0.37132874  0.05034471     0.14500
C1298       C  0.43973998  0.37687109  0.06860488     0.01400
C1299       C  0.43103822  0.41320672  0.06960993     0.16400
C1300       C  0.44352034  0.44393978  0.05257377     0.25800
C1301       C  0.46499727  0.43869619  0.03446801    -0.40500
C1302       C  0.47327429  0.40213766  0.03341907     0.32900
C1303       C  0.42732521  0.34435479  0.08645182     0.01500
F1304       F  0.41110696  0.41918307  0.08717765    -0.12800
F1305       F  0.49387406  0.39650641  0.01602479    -0.13400
C1306       C  0.46173845  0.34303417  0.09834720     0.16400
C1307       C  0.45061112  0.30818929  0.11317156     0.25800
C1308       C  0.40491742  0.27415465  0.11626072    -0.40500
C1309       C  0.37030357  0.27661305  0.10501193     0.32800
C1310       C  0.38145647  0.31171073  0.09026538     0.14500
F1311       F  0.50622715  0.37467320  0.09502138    -0.12800
F1312       F  0.32600933  0.24361536  0.10745695    -0.13300
F1313       F  0.48452022  0.30656699  0.12395465    -0.15600
F1314       F  0.34779103  0.31231119  0.07878191    -0.14200
F1315       F  0.46830471  0.33577835  0.04890579    -0.14200
F1316       F  0.43454254  0.47867734  0.05366395    -0.15600
C1317       C  0.47855374  0.13042217  0.10466751     0.14500
C1318       C  0.44745832  0.09192825  0.09298789     0.01400
C1319       C  0.40042624  0.07375730  0.09632516     0.16400
C1320       C  0.38468407  0.09546572  0.11011802     0.25800
C1321       C  0.41577993  0.13542926  0.12090979    -0.40500
C1322       C  0.46282456  0.15200010  0.11853359     0.32900
C1323       C  0.46351899  0.07492166  0.07509629     0.01500
F1324       F  0.36979038  0.03704681  0.08494942    -0.12800
F1325       F  0.49348681  0.19056932  0.12878489    -0.13400
C1326       C  0.45897445  0.03136043  0.07566895     0.16400
C1327       C  0.47012160  0.01421771  0.05766424     0.25800
C1328       C  0.48524028  0.04018429  0.03881066    -0.40500
C1329       C  0.49089354  0.08415208  0.03849908     0.32800
C1330       C  0.48037258  0.10145882  0.05650874     0.14500
F1331       F  0.44315664  0.00531951  0.09353458    -0.12800
F1332       F  0.50568173  0.10993878  0.02051841    -0.13300
F1333       F  0.46474268  0.97177659  0.05835993    -0.15600
F1334       F  0.48480927  0.14352111  0.05553868    -0.14200
F1335       F  0.52413733  0.14835107  0.10182031    -0.14200
F1336       F  0.33916268  0.07950708  0.11169414    -0.15600
C1337       C  0.28017198  0.04009275  0.25454937     0.14500
C1338       C  0.24941214  0.99632292  0.24699783     0.01400
C1339       C  0.23613317  0.99027428  0.22547582     0.16400
C1340       C  0.25162766  0.02819015  0.21193372     0.25800
C1341       C  0.28104471  0.07233795  0.21977690    -0.40500
C1342       C  0.29595998  0.07777000  0.24105474     0.32900
C1343       C  0.22783717  0.95844982  0.26242080     0.01500
F1344       F  0.20651641  0.94805057  0.21792330    -0.12800
F1345       F  0.32443777  0.11996489  0.24898649    -0.13400
C1346       C  0.19348016  0.95570762  0.27597706     0.16400
C1347       C  0.17682786  0.92412626  0.29265804     0.25800
C1348       C  0.19448670  0.89502718  0.29604804    -0.40500
C1349       C  0.22783724  0.89669819  0.28208996     0.32800
C1350       C  0.24441134  0.92826014  0.26529907     0.14500
F1351       F  0.17710162  0.98467780  0.27337450    -0.12800
F1352       F  0.24479643  0.86830227  0.28500742    -0.13300
F1353       F  0.14446529  0.92283234  0.30591812    -0.15600
F1354       F  0.27760983  0.93046424  0.25232805    -0.14200
F1355       F  0.29337145  0.04642554  0.27531357    -0.14200
F1356       F  0.23623645  0.02211765  0.19153164    -0.15600
C1357       C  0.38721341  0.30697975  0.31173648     0.14500
C1358       C  0.38682686  0.34732876  0.31660407     0.01400
C1359       C  0.42871527  0.38800620  0.31896175     0.16400
C1360       C  0.47003086  0.38813643  0.31723911     0.25800
C1361       C  0.47050441  0.34728181  0.31357189    -0.40500
C1362       C  0.42850454  0.30684583  0.31039924     0.32900
C1363       C  0.34297230  0.34679604  0.32008344     0.01500
F1364       F  0.42968176  0.42738562  0.32412399    -0.12800
F1365       F  0.42723676  0.26688566  0.30631744    -0.13400
C1366       C  0.31097004  0.31682419  0.33510572     0.16400
C1367       C  0.27001990  0.31664113  0.33860511     0.25800
C1368       C  0.26022789  0.34644646  0.32721664    -0.40500
C1369       C  0.29239641  0.37691210  0.31247998     0.32800
C1370       C  0.33326082  0.37695425  0.30885710     0.14500
F1371       F  0.31953581  0.28793743  0.34657699    -0.12800
F1372       F  0.28392312  0.40635346  0.30144533    -0.13300
F1373       F  0.23920474  0.28633434  0.35266456    -0.15600
F1374       F  0.36293169  0.40580911  0.29401455    -0.14200
F1375       F  0.34746160  0.26744683  0.30848926    -0.14200
F1376       F  0.50944263  0.42798342  0.32051808    -0.15600
C1377       C  0.03398515  0.36624717  0.33895621     0.14500
C1378       C  0.99543699  0.32394959  0.34413816     0.01400
C1379       C  0.00119123  0.28568488  0.34650139     0.16400
C1380       C  0.04382670  0.28933241  0.34288411     0.25800
C1381       C  0.08202465  0.33157179  0.33769797    -0.40500
C1382       C  0.07690184  0.37019069  0.33637659     0.32900
C1383       C  0.94928276  0.31962099  0.34605526     0.01500
F1384       F  0.96566657  0.24478953  0.35260199    -0.12800
F1385       F  0.11330858  0.41157112  0.33161239    -0.13400
C1386       C  0.91166033  0.28512210  0.33493509     0.16400
C1387       C  0.86925988  0.28299003  0.33537869     0.25800
C1388       C  0.86374075  0.31617275  0.34631271    -0.40500
C1389       C  0.90081880  0.35015098  0.35773422     0.32800
C1390       C  0.94286992  0.35138979  0.35794058     0.14500
F1391       F  0.91646897  0.25495363  0.32252856    -0.12800
F1392       F  0.89633298  0.38225714  0.36867544    -0.13300
F1393       F  0.83434544  0.25019225  0.32383261    -0.15600
F1394       F  0.97746366  0.38408734  0.36961387    -0.14200
F1395       F  0.02993342  0.40361536  0.33551987    -0.14200
F1396       F  0.04810732  0.25175883  0.34485700    -0.15600
C1397       C  0.10361956  0.35812229  0.40232162     0.14500
C1398       C  0.11964560  0.40492854  0.40457265     0.01400
C1399       C  0.15224519  0.43584605  0.39009060     0.16400
C1400       C  0.16739388  0.41995427  0.37313781     0.25800
C1401       C  0.15004790  0.37297727  0.37044575    -0.40500
C1402       C  0.11891836  0.34227198  0.38544140     0.32900
C1403       C  0.09992314  0.42134841  0.42098241     0.01500
F1404       F  0.16748915  0.48118282  0.39172497    -0.12800
F1405       F  0.10235422  0.29681418  0.38331691    -0.13400
C1406       C  0.12729764  0.45045301  0.43734748     0.16400
C1407       C  0.10956085  0.46972466  0.45143324     0.25800
C1408       C  0.06445132  0.46040421  0.44916962    -0.40500
C1409       C  0.03658632  0.43004027  0.43331893     0.32800
C1410       C  0.05410967  0.41029528  0.41942443     0.14500
F1411       F  0.17148356  0.46112038  0.43926667    -0.12800
F1412       F  0.99322892  0.42152095  0.43062212    -0.13300
F1413       F  0.13698721  0.49932717  0.46659570    -0.15600
F1414       F  0.02717794  0.38233844  0.40368769    -0.14200
F1415       F  0.07242958  0.32777950  0.41624638    -0.14200
F1416       F  0.19707902  0.45014240  0.35868451    -0.15600
C1417       C  0.30981428  0.43931463  0.37989684     0.14500
C1418       C  0.30343905  0.41427023  0.39873330     0.01400
C1419       C  0.26427370  0.37125148  0.40108577     0.16400
C1420       C  0.23178550  0.35352058  0.38479843     0.25800
C1421       C  0.23815046  0.37857010  0.36595732    -0.40500
C1422       C  0.27736164  0.42158617  0.36361411     0.32900
C1423       C  0.33788233  0.43330949  0.41584970     0.01500
F1424       F  0.25743792  0.34667303  0.41921627    -0.12800
F1425       F  0.28410667  0.44632970  0.34554933    -0.13400
C1426       C  0.34467415  0.47201482  0.42709890     0.16400
C1427       C  0.37985662  0.49257637  0.44201769     0.25800
C1428       C  0.40868728  0.47468151  0.44589779    -0.40500
C1429       C  0.40110864  0.43518703  0.43508593     0.32800
C1430       C  0.36573811  0.41447975  0.42019740     0.14500
F1431       F  0.31771637  0.49033369  0.42328546    -0.12800
F1432       F  0.42930391  0.41805297  0.43823498    -0.13300
F1433       F  0.38675374  0.53079761  0.45226486    -0.15600
F1434       F  0.36001291  0.37739707  0.40926971    -0.14200
F1435       F  0.34786869  0.48065875  0.37719780    -0.14200
F1436       F  0.19447752  0.31155577  0.38721261    -0.15600
C1437       C  0.97140352  0.18534713  0.24938577     0.14500
C1438       C  0.00045439  0.23306495  0.24917629     0.01400
C1439       C  0.99311861  0.25834495  0.23328512     0.16400
C1440       C  0.95513022  0.23718860  0.21983706     0.25800
C1441       C  0.92830531  0.18932777  0.21916830    -0.40500
C1442       C  0.93868246  0.16380994  0.23355838     0.32900
C1443       C  0.03682565  0.25604103  0.26579043     0.01500
F1444       F  0.02247271  0.30359500  0.23059496    -0.12800
F1445       F  0.91550678  0.11750568  0.23303166    -0.13400
C1446       C  0.06031838  0.23474112  0.27404253     0.16400
C1447       C  0.08948295  0.25337001  0.29146309     0.25800
C1448       C  0.10322794  0.29780084  0.29838266    -0.40500
C1449       C  0.08330495  0.32109708  0.28879240     0.32800
C1450       C  0.04769253  0.29897641  0.27421357     0.14500
F1451       F  0.05594185  0.19620471  0.26520479    -0.12800
F1452       F  0.09814447  0.36535410  0.29349623    -0.13300
F1453       F  0.10400725  0.22763395  0.30160701    -0.15600
F1454       F  0.02325746  0.31935433  0.26900539    -0.14200
F1455       F  0.97257774  0.15910436  0.26546406    -0.14200
F1456       F  0.94410568  0.26385293  0.20801118    -0.15600
C1457       C  0.20839267  0.21926855  0.22912624     0.14500
C1458       C  0.23910162  0.25700668  0.24130041     0.01400
C1459       C  0.28614021  0.27346141  0.23935033     0.16400
C1460       C  0.30215338  0.25099717  0.22622245     0.25800
C1461       C  0.27128086  0.21180503  0.21486543    -0.40500
C1462       C  0.22437144  0.19676695  0.21601375     0.32900
C1463       C  0.22199786  0.27349170  0.25887992     0.01500
F1464       F  0.31623488  0.30932290  0.25134297    -0.12800
F1465       F  0.19394781  0.15883308  0.20528906    -0.13400
C1466       C  0.21246866  0.25098021  0.27860078     0.16400
C1467       C  0.19859051  0.26684590  0.29593755     0.25800
C1468       C  0.19360882  0.30545900  0.29389178    -0.40500
C1469       C  0.20211601  0.32751554  0.27397435     0.32800
C1470       C  0.21643917  0.31168186  0.25654450     0.14500
F1471       F  0.21724767  0.21378403  0.28109968    -0.12800
F1472       F  0.19777743  0.36498589  0.27163236    -0.13300
F1473       F  0.18932769  0.24407928  0.31477537    -0.15600
F1474       F  0.22542496  0.33381138  0.23754137    -0.14200
F1475       F  0.16278662  0.20260255  0.23098753    -0.14200
F1476       F  0.34749380  0.26554670  0.22574164    -0.15600
loop_ 
_geom_bond_atom_site_label_1 
_geom_bond_atom_site_label_2 
_geom_bond_distance 
_geom_bond_site_symmetry_2 
_ccdc_geom_bond_type 
C1            C2   1.418       .  A
C1            C6   1.414       .  A
C1         C1368   1.496       .  S
C2            C3   1.425       .  A
C2         C1468   1.495       .  S
C3            C4   1.424       .  A
C3         C1448   1.496       .  S
C4            C5   1.417       .  A
C4         C1381   1.499       .  S
C5            C6   1.414       .  A
C5         C1401   1.488       .  S
C6         C1421   1.485       .  S
C7            C8   1.397       .  A
C7           C12   1.414       .  A
C7         C1461   1.486       .  S
C8            C9   1.401       .  A
C8           H27   1.085       .  S
C9           C10   1.416       .  A
C9         C1341   1.485       .  S
C10          C11   1.421       .  A
C10          C17   1.407       .  A
C11          C12   1.422       .  A
C11          C16   1.422       .  A
C12          C13   1.404       .  A
C13          C14   1.392       .  A
C13          H23   1.082       .  S
C14          C15   1.406       .  A
C14          H24   1.082       .  S
C15          C16   1.420       .  A
C15          C22   1.414       .  A
C16          C19   1.422       .  A
C17          C18   1.394       .  A
C17          H25   1.082       .  S
C18          C19   1.404       .  A
C18          H26   1.082       .  S
C19          C20   1.416       .  A
C20          C21   1.398       .  A
C20        C1321   1.487       .  S
C21          C22   1.398       .  A
C21          H28   1.085       .  S
C22        C1308   1.482       .  S
C29          C30   1.403       .  A
C29          C34   1.424       .  A
C29        C1441   1.499       .  S
C30          C31   1.394       .  A
C30          H49   1.084       .  S
C31          C32   1.409       .  A
C31        C1281   1.485       .  S
C32          C33   1.420       .  A
C32          C39   1.403       .  A
C33          C34   1.423       .  A
C33          C38   1.420       .  A
C34          C35   1.409       .  A
C35          C36   1.394       .  A
C35          H45   1.079       .  S
C36          C37   1.402       .  A
C36          H46   1.083       .  S
C37          C38   1.418       .  A
C37          C44   1.413       .  A
C38          C41   1.418       .  A
C39          C40   1.392       .  A
C39          H47   1.083       .  S
C40          C41   1.407       .  A
C40          H48   1.082       .  S
C41          C42   1.414       .  A
C42          C43   1.399       .  A
C42        C1261   1.479       .  S
C43          C44   1.398       .  A
C43          H50   1.085       .  S
C44        C1248   1.484       .  S
C51          C52   1.416       .  A
C51          C56   1.415       .  A
C51        C1141   1.487       .  S
C52          C53   1.411       .  A
C52        C1348   1.482       .  S
C53          C54   1.413       .  A
C53        C1228   1.491       .  S
C54          C55   1.417       .  A
C54        C1161   1.483       .  S
C55          C56   1.413       .  A
C55        C1181   1.486       .  S
C56        C1201   1.489       .  S
C57          C58   1.417       .  A
C57          C62   1.415       .  A
C57        C1041   1.493       .  S
C58          C59   1.415       .  A
C58        C1288   1.492       .  S
C59          C60   1.418       .  A
C59        C1121   1.485       .  S
C60          C61   1.416       .  A
C60        C1061   1.493       .  S
C61          C62   1.414       .  A
C61        C1101   1.488       .  S
C62        C1081   1.486       .  S
C63          C64   1.396       .  A
C63          C68   1.412       .  A
C63        C1128   1.475       .  S
C64          C65   1.396       .  A
C64          H83   1.086       .  S
C65          C66   1.416       .  A
C65        C1221   1.488       .  S
C66          C67   1.424       .  A
C66          C73   1.403       .  A
C67          C68   1.418       .  A
C67          C72   1.420       .  A
C68          C69   1.407       .  A
C69          C70   1.395       .  A
C69          H79   1.083       .  S
C70          C71   1.405       .  A
C70          H80   1.083       .  S
C71          C72   1.424       .  A
C71          C78   1.417       .  A
C72          C75   1.419       .  A
C73          C74   1.392       .  A
C73          H81   1.082       .  S
C74          C75   1.407       .  A
C74          H82   1.082       .  S
C75          C76   1.412       .  A
C76          C77   1.396       .  A
C76        C1001   1.477       .  S
C77          C78   1.395       .  A
C77          H84   1.086       .  S
C78        C1028   1.484       .  S
C85          C86   1.415   1_556  A
C85          C90   1.415   1_545  A
C85         C921   1.495       .  S
C86          C87   1.413       .  A
C86        C1268   1.481       .  S
C87          C88   1.415       .  A
C87        C1328   1.491       .  S
C88          C89   1.418   1_544  A
C88         C941   1.489       .  S
C89          C90   1.416       .  A
C89         C968   1.486       .  S
C90         C981   1.486       .  S
C91          C92   1.412       .  A
C91          C96   1.412   1_554  A
C91         C861   1.482       .  S
C92          C93   1.410       .  A
C92        C1021   1.486       .  S
C93          C94   1.413   1_554  A
C93        C1301   1.481       .  S
C94          C95   1.413       .  A
C94         C848   1.484       .  S
C95          C96   1.412       .  A
C95         C901   1.483       .  S
C96         C881   1.482       .  S
C97          C98   1.418   1_455  A
C97         C102   1.416   1_554  A
C97         C768   1.490       .  S
C98          C99   1.415       .  A
C98        C1241   1.494       .  S
C99         C100   1.416   1_655  A
C99        C1008   1.478       .  S
C100        C101   1.412   1_554  A
C100        C781   1.494       .  S
C101        C102   1.412       .  A
C101        C801   1.489       .  S
C102        C828   1.482       .  S
C103        C104   1.413       .  A
C103        C108   1.414       .  A
C103        C641   1.493       .  S
C104        C105   1.420       .  A
C104        C748   1.489       .  S
C105        C106   1.429       .  A
C105        C721   1.502       .  S
C106        C107   1.428       .  A
C106        C668   1.501       .  S
C107        C108   1.422       .  A
C107        C688   1.500       .  S
C108        C701   1.496       .  S
C109        C110   1.394       .  A
C109        C114   1.411       .  A
C109        C821   1.476       .  S
C110        C111   1.395       .  A
C110        H129   1.086       .  S
C111        C112   1.414       .  A
C111        C908   1.478       .  S
C112        C113   1.420       .  A
C112        C119   1.406       .  A
C113        C114   1.421       .  A
C113        C118   1.418       .  A
C114        C115   1.404       .  A
C115        C116   1.392       .  A
C115        H125   1.083       .  S
C116        C117   1.406       .  A
C116        H126   1.083       .  S
C117        C118   1.419       .  A
C117        C124   1.410       .  A
C118        C121   1.422       .  A
C119        C120   1.394       .  A
C119        H127   1.082       .  S
C120        C121   1.405       .  A
C120        H128   1.082       .  S
C121        C122   1.415       .  A
C122        C123   1.398       .  A
C122        C708   1.483       .  S
C123        C124   1.396       .  A
C123        H130   1.085       .  S
C124        C628   1.476       .  S
C131        C132   1.398       .  A
C131        C136   1.413       .  A
C131        C961   1.481       .  S
C132        C133   1.398       .  A
C132        H151   1.085       .  S
C133        C134   1.415       .  A
C133        C808   1.483       .  S
C134        C135   1.421       .  A
C134        C141   1.406       .  A
C135        C136   1.419       .  A
C135        C140   1.421       .  A
C136        C137   1.404       .  A
C137        C138   1.395       .  A
C137        H147   1.083       .  S
C138        C139   1.407       .  A
C138        H148   1.080       .  S
C139        C140   1.425       .  A
C139        C146   1.423       .  A
C140        C143   1.421       .  A
C141        C142   1.394       .  A
C141        H149   1.082       .  S
C142        C143   1.404       .  A
C142        H150   1.083       .  S
C143        C144   1.411       .  A
C144        C145   1.393       .  A
C144        C601   1.487       .  S
C145        C146   1.403       .  A
C145        H152   1.084       .  S
C146        C681   1.500       .  S
C153        C154   1.410       .  A
C153        C158   1.415       .  A
C153        C528   1.495       .  S
C154        C155   1.411       .  A
C154        C621   1.479       .  S
C155        C156   1.414       .  A
C155        C541   1.485       .  S
C156        C157   1.415       .  A
C156        C501   1.488       .  S
C157        C158   1.415       .  A
C157        C561   1.489       .  S
C158        C588   1.476       .  S
C159        C160   1.415       .  A
C159        C164   1.415       .  A
C159        C421   1.487       .  S
C160        C161   1.413       .  A
C160        C448   1.486       .  S
C161        C162   1.416       .  A
C161        C608   1.487       .  S
C162        C163   1.415       .  A
C162        C401   1.489       .  S
C163        C164   1.412       .  A
C163        C481   1.486       .  S
C164        C468   1.486       .  S
C165        C166   1.396       .  A
C165        C170   1.415       .  A
C165        C988   1.484       .  S
C166        C167   1.397       .  A
C166        H185   1.086       .  S
C167        C168   1.414       .  A
C167        C888   1.480       .  S
C168        C169   1.420       .  A
C168        C175   1.406       .  A
C169        C170   1.422       .  A
C169        C174   1.421       .  A
C170        C171   1.404       .  A
C171        C172   1.394       .  A
C171        H181   1.082       .  S
C172        C173   1.407       .  A
C172        H182   1.082       .  S
C173        C174   1.420       .  A
C173        C180   1.416       .  A
C174        C177   1.422       .  A
C175        C176   1.394       .  A
C175        H183   1.083       .  S
C176        C177   1.405       .  A
C176        H184   1.083       .  S
C177        C178   1.415       .  A
C178        C179   1.397       .  A
C178        C441   1.484       .  S
C179        C180   1.400       .  A
C179        H186   1.085       .  S
C180        C548   1.485       .  S
C187        C188   1.394       .  A
C187        C192   1.412       .  A
C187       C1408   1.477       .  S
C188        C189   1.396       .  A
C188        H207   1.086       .  S
C189        C190   1.414       .  A
C189       C1188   1.479       .  S
C190        C191   1.421       .  A
C190        C197   1.406       .  A
C191        C192   1.421       .  A
C191        C196   1.419   1_455  A
C192        C193   1.405       .  A
C193        C194   1.393   1_455  A
C193        H203   1.083       .  S
C194        C195   1.405       .  A
C194        H204   1.083       .  S
C195        C196   1.420       .  A
C195        C202   1.411       .  A
C196        C199   1.421       .  A
C197        C198   1.395   1_455  A
C197        H205   1.082       .  S
C198        C199   1.406       .  A
C198        H206   1.083       .  S
C199        C200   1.415       .  A
C200        C201   1.395       .  A
C200        C488   1.480       .  S
C201        C202   1.395       .  A
C201        H208   1.086       .  S
C202        C581   1.475       .  S
C209        C210   1.396       .  A
C209        C214   1.411       .  A
C209       C1108   1.477       .  S
C210        C211   1.396       .  A
C210        H229   1.086       .  S
C211        C212   1.414       .  A
C211       C1428   1.481       .  S
C212        C213   1.421       .  A
C212        C219   1.406       .  A
C213        C214   1.420       .  A
C213        C218   1.419       .  A
C214        C215   1.405       .  A
C215        C216   1.393       .  A
C215        H225   1.083       .  S
C216        C217   1.405       .  A
C216        H226   1.082       .  S
C217        C218   1.420       .  A
C217        C224   1.413       .  A
C218        C221   1.419       .  A
C219        C220   1.393       .  A
C219        H227   1.082       .  S
C220        C221   1.405       .  A
C220        H228   1.083       .  S
C221        C222   1.412       .  A
C222        C223   1.397       .  A
C222        C741   1.475       .  S
C223        C224   1.395       .  A
C223        H230   1.086       .  S
C224        C461   1.479       .  S
C231        C232   1.398       .  A
C231        C236   1.411       .  A
C231       C1088   1.475       .  S
C232        C233   1.398       .  A
C232        H251   1.085       .  S
C233        C234   1.416       .  A
C233       C1208   1.486       .  S
C234        C235   1.420       .  A
C234        C241   1.402       .  A
C235        C236   1.418       .  A
C235        C240   1.421       .  A
C236        C237   1.406       .  A
C237        C238   1.391       .  A
C237        H247   1.082       .  S
C238        C239   1.404       .  A
C238        H248   1.083       .  S
C239        C240   1.422       .  A
C239        C246   1.411   1_565  A
C240        C243   1.423   1_565  A
C241        C242   1.395   1_565  A
C241        H249   1.083       .  S
C242        C243   1.410       .  A
C242        H250   1.079       .  S
C243        C244   1.425       .  A
C244        C245   1.405       .  A
C244        C728   1.501       .  S
C245        C246   1.394       .  A
C245        H252   1.084       .  S
C246        C568   1.490       .  S
O253       Mg255   2.148   1_455  S
O253       Mg261   2.154   1_554  S
O253        C288   1.236       .  S
C254        H293   1.083       .  S
C254        O267   1.235       .  S
C254        O291   1.269       .  A
Mg255       O284   2.164   1_554  S
Mg255       O299   2.320   1_554  S
Mg255       O295   2.269       .  S
Mg255       O266   2.301       .  S
O256       Mg298   2.154   1_554  S
O256       Mg281   2.146       .  S
O256        C277   1.235       .  S
O257        C288   1.270       .  A
O257       Mg281   2.299   1_565  S
C258        C928   1.494   1_565  S
C258        O260   1.275       .  A
C258        O272   1.275   1_565  A
O259        C287   1.270   1_455  A
O259       Mg261   2.303       .  S
O260       Mg292   2.293       .  S
Mg261       O267   2.141   1_565  S
Mg261       O275   2.261       .  S
Mg261       O263   2.307   1_556  S
C262        C761   1.471       .  S
C262        O300   1.271       .  A
C262        O268   1.275   1_655  A
O263        C270   1.275       .  A
H264        C277   1.079       .  S
C265        H290   1.076       .  S
C265        O279   1.235       .  S
C265        O280   1.270       .  A
O266        C289   1.271       .  A
O267       Mg281   2.160   1_556  S
O268       Mg298   2.315   1_554  S
C269        C841   1.487       .  S
C269        O282   1.272       .  A
C269        O274   1.275   1_556  A
C270        C948   1.492       .  S
C270        O297   1.272   1_565  A
Mg271       O278   2.147   1_545  S
Mg271       O279   2.147   1_554  S
Mg271       O272   2.302   1_554  S
Mg271       O273   2.301       .  S
Mg271       O300   2.256       .  S
O273        C277   1.270   1_655  A
O274       Mg281   2.308       .  S
O275        C294   1.272       .  A
O276        C296   1.275       .  A
O276       Mg292   2.295   1_554  S
O278       Mg292   2.163   1_554  S
O278        C289   1.236       .  S
O279       Mg298   2.149   1_655  S
O280       Mg292   2.297   1_545  S
Mg281       O297   2.266       .  S
O282       Mg298   2.256       .  S
H283        C288   1.075       .  S
O284       Mg292   2.161       .  S
O284        C287   1.235       .  S
H285        C287   1.084       .  S
H286        C289   1.077       .  S
O291       Mg298   2.295       .  S
C294        C788   1.494   1_455  S
C294        O299   1.277   1_455  A
O295        C296   1.273       .  A
C296        C868   1.487       .  S
O301       Mg303   2.137       .  S
O301       Mg309   2.142       .  S
O301        C336   1.235       .  S
C302        H341   1.077       .  S
C302        O315   1.235       .  S
C302        O339   1.270       .  A
Mg303       O332   2.155       .  S
Mg303       O347   2.325       .  S
Mg303       O343   2.248       .  S
Mg303       O314   2.305       .  S
O304       Mg346   2.171       .  S
O304       Mg329   2.153       .  S
O304        C325   1.234       .  S
O305        C336   1.270       .  A
O305       Mg329   2.300       .  S
C306       C1068   1.486       .  S
C306        O308   1.273       .  A
C306        O320   1.275       .  A
O307        C335   1.270       .  A
O307       Mg309   2.301       .  S
O308       Mg340   2.283       .  S
Mg309       O315   2.153       .  S
Mg309       O323   2.267       .  S
Mg309       O311   2.281       .  S
C310       C1361   1.492       .  S
C310        O348   1.273       .  A
C310        O316   1.277       .  A
O311        C318   1.271       .  A
H312        C325   1.085       .  S
C313        H338   1.078       .  S
C313        O327   1.236       .  S
C313        O328   1.271       .  A
O314        C337   1.271       .  A
O315       Mg329   2.159       .  S
O316       Mg346   2.318       .  S
C317       C1148   1.478       .  S
C317        O330   1.273       .  A
C317        O322   1.275       .  A
C318       C1048   1.481       .  S
C318        O345   1.274       .  A
Mg319       O326   2.152       .  S
Mg319       O327   2.156       .  S
Mg319       O320   2.297       .  S
Mg319       O321   2.298       .  S
Mg319       O348   2.274       .  S
O321        C325   1.269       .  A
O322       Mg329   2.296       .  S
O323        C342   1.271       .  A
O324        C344   1.275       .  A
O324       Mg340   2.305       .  S
O326       Mg340   2.161       .  S
O326        C337   1.236       .  S
O327       Mg346   2.152       .  S
O328       Mg340   2.300       .  S
Mg329       O345   2.279       .  S
O330       Mg346   2.275       .  S
H331        C336   1.080       .  S
O332       Mg340   2.154       .  S
O332        C335   1.236       .  S
H333        C335   1.080       .  S
H334        C337   1.078       .  S
O339       Mg346   2.296       .  S
C342       C1388   1.483       .  S
C342        O347   1.276       .  A
O343        C344   1.270       .  A
C344       C1168   1.476       .  S
O349       Mg351   2.151       .  S
O349       Mg357   2.162       .  S
O349        C384   1.236       .  S
C350        H389   1.078       .  S
C350        O363   1.236       .  S
C350        O387   1.270       .  A
Mg351       O380   2.160       .  S
Mg351       O395   2.300       .  S
Mg351       O391   2.270       .  S
Mg351       O362   2.300       .  S
O352       Mg394   2.152       .  S
O352       Mg377   2.151       .  S
O352        C373   1.237       .  S
O353        C384   1.271       .  A
O353       Mg377   2.305       .  S
C354        C428   1.475       .  S
C354        O356   1.272       .  A
C354        O368   1.275       .  A
O355        C383   1.270       .  A
O355       Mg357   2.298       .  S
O356       Mg388   2.268       .  S
Mg357       O363   2.157       .  S
Mg357       O371   2.289       .  S
Mg357       O359   2.311       .  S
C358        C648   1.482       .  S
C358        O396   1.272       .  A
C358        O364   1.273       .  A
O359        C366   1.276       .  A
H360        C373   1.079       .  S
C361        H386   1.083       .  S
C361        O375   1.235       .  S
C361        O376   1.270       .  A
O362        C385   1.271       .  A
O363       Mg377   2.154       .  S
O364       Mg394   2.289       .  S
C365        C521   1.487       .  S
C365        O378   1.271       .  A
C365        O370   1.276       .  A
C366        C408   1.483       .  S
C366        O393   1.272       .  A
Mg367       O374   2.149       .  S
Mg367       O375   2.148       .  S
Mg367       O368   2.312       .  S
Mg367       O369   2.306       .  S
Mg367       O396   2.268       .  S
O369        C373   1.272       .  A
O370       Mg377   2.322       .  S
O371        C390   1.274       .  A
O372        C392   1.274       .  A
O372       Mg388   2.300       .  S
O374       Mg388   2.149       .  S
O374        C385   1.236       .  S
O375       Mg394   2.149       .  S
O376       Mg388   2.304       .  S
Mg377       O393   2.259       .  S
O378       Mg394   2.272       .  S
H379        C384   1.082       .  S
O380       Mg388   2.153       .  S
O380        C383   1.235       .  S
H381        C383   1.080       .  S
H382        C385   1.075       .  S
O387       Mg394   2.301       .  S
C390        C661   1.489       .  S
C390        O395   1.275       .  A
O391        C392   1.273       .  A
C392        C508   1.484       .  S
C397        C398   1.406       .  A
C397        C402   1.399       .  A
C397        F415   1.358       .  S
C398        C399   1.408       .  A
C398        C403   1.485   1_655  S
C399        C400   1.400       .  A
C399        F404   1.358   1_655  S
C400        C401   1.404       .  A
C400        F416   1.357       .  S
C401        C402   1.405       .  A
C402        F405   1.357       .  S
C403        C406   1.406       .  A
C403        C410   1.406       .  A
C406        C407   1.400       .  A
C406        F411   1.358       .  S
C407        C408   1.411       .  A
C407        F413   1.358       .  S
C408        C409   1.407       .  A
C409        C410   1.399       .  A
C409        F412   1.358       .  S
C410        F414   1.357       .  S
C417        C418   1.407       .  A
C417        C422   1.398       .  A
C417        F435   1.358       .  S
C418        C419   1.408       .  A
C418        C423   1.485       .  S
C419        C420   1.400       .  A
C419        F424   1.358       .  S
C420        C421   1.404       .  A
C420        F436   1.357       .  S
C421        C422   1.403       .  A
C422        F425   1.357       .  S
C423        C426   1.408       .  A
C423        C430   1.406       .  A
C426        C427   1.401       .  A
C426        F431   1.357       .  S
C427        C428   1.405       .  A
C427        F433   1.358       .  S
C428        C429   1.406       .  A
C429        C430   1.399       .  A
C429        F432   1.358       .  S
C430        F434   1.358       .  S
C437        C438   1.407       .  A
C437        C442   1.402       .  A
C437        F455   1.358       .  S
C438        C439   1.406       .  A
C438        C443   1.483       .  S
C439        C440   1.400       .  A
C439        F444   1.358       .  S
C440        C441   1.405       .  A
C440        F456   1.358       .  S
C441        C442   1.405       .  A
C442        F445   1.358       .  S
C443        C446   1.407       .  A
C443        C450   1.406       .  A
C446        C447   1.398       .  A
C446        F451   1.358       .  S
C447        C448   1.403       .  A
C447        F453   1.357       .  S
C448        C449   1.405       .  A
C449        C450   1.402       .  A
C449        F452   1.357       .  S
C450        F454   1.357       .  S
C457        C458   1.407       .  A
C457        C462   1.399       .  A
C457        F475   1.357       .  S
C458        C459   1.406       .  A
C458        C463   1.481       .  S
C459        C460   1.400       .  A
C459        F464   1.358       .  S
C460        C461   1.404       .  A
C460        F476   1.358       .  S
C461        C462   1.403       .  A
C462        F465   1.358       .  S
C463        C466   1.406       .  A
C463        C470   1.405       .  A
C466        C467   1.399       .  A
C466        F471   1.358       .  S
C467        C468   1.404       .  A
C467        F473   1.358       .  S
C468        C469   1.405       .  A
C469        C470   1.400       .  A
C469        F472   1.357       .  S
C470        F474   1.358       .  S
C477        C478   1.404       .  A
C477        C482   1.397       .  A
C477        F495   1.358       .  S
C478        C479   1.403       .  A
C478        C483   1.476       .  S
C479        C480   1.401       .  A
C479        F484   1.358       .  S
C480        C481   1.407       .  A
C480        F496   1.357       .  S
C481        C482   1.403       .  A
C482        F485   1.357       .  S
C483        C486   1.405       .  A
C483        C490   1.404       .  A
C486        C487   1.402       .  A
C486        F491   1.358       .  S
C487        C488   1.405       .  A
C487        F493   1.358       .  S
C488        C489   1.405       .  A
C489        C490   1.397       .  A
C489        F492   1.358   1_655  S
C490        F494   1.358       .  S
C497        C498   1.408       .  A
C497        C502   1.398       .  A
C497        F515   1.358       .  S
C498        C499   1.410       .  A
C498        C503   1.489   1_545  S
C499        C500   1.399       .  A
C499        F504   1.358   1_545  S
C500        C501   1.403       .  A
C500        F516   1.357       .  S
C501        C502   1.404       .  A
C502        F505   1.357       .  S
C503        C506   1.407       .  A
C503        C510   1.408       .  A
C506        C507   1.399       .  A
C506        F511   1.358       .  S
C507        C508   1.409       .  A
C507        F513   1.358       .  S
C508        C509   1.409       .  A
C509        C510   1.400       .  A
C509        F512   1.358       .  S
C510        F514   1.358       .  S
C517        C518   1.410       .  A
C517        C522   1.403       .  A
C517        F535   1.358       .  S
C518        C519   1.410       .  A
C518        C523   1.496       .  S
C519        C520   1.402       .  A
C519        F524   1.358       .  S
C520        C521   1.409       .  A
C520        F536   1.358       .  S
C521        C522   1.407       .  A
C522        F525   1.358       .  S
C523        C526   1.410   1_455  A
C523        C530   1.411   1_455  A
C526        C527   1.403       .  A
C526        F531   1.358   1_655  S
C527        C528   1.405       .  A
C527        F533   1.357       .  S
C528        C529   1.403       .  A
C529        C530   1.401       .  A
C529        F532   1.357       .  S
C530        F534   1.358       .  S
C537        C538   1.406       .  A
C537        C542   1.401       .  A
C537        F555   1.358       .  S
C538        C539   1.406       .  A
C538        C543   1.479       .  S
C539        C540   1.394       .  A
C539        F544   1.358       .  S
C540        C541   1.402       .  A
C540        F556   1.358       .  S
C541        C542   1.405       .  A
C542        F545   1.357       .  S
C543        C546   1.405   1_545  A
C543        C550   1.405       .  A
C546        C547   1.399       .  A
C546        F551   1.358   1_565  S
C547        C548   1.407       .  A
C547        F553   1.358       .  S
C548        C549   1.406       .  A
C549        C550   1.398   1_565  A
C549        F552   1.358       .  S
C550        F554   1.358       .  S
C557        C558   1.405       .  A
C557        C562   1.400       .  A
C557        F575   1.358       .  S
C558        C559   1.404       .  A
C558        C563   1.480       .  S
C559        C560   1.402       .  A
C559        F564   1.358       .  S
C560        C561   1.407       .  A
C560        F576   1.357       .  S
C561        C562   1.404       .  A
C562        F565   1.357       .  S
C563        C566   1.404       .  A
C563        C570   1.405       .  A
C566        C567   1.402       .  A
C566        F571   1.358       .  S
C567        C568   1.408       .  A
C567        F573   1.358       .  S
C568        C569   1.407       .  A
C569        C570   1.401       .  A
C569        F572   1.358   1_545  S
C570        F574   1.358       .  S
C577        C578   1.406       .  A
C577        C582   1.400       .  A
C577        F595   1.358       .  S
C578        C579   1.402       .  A
C578        C583   1.472       .  S
C579        C580   1.395       .  A
C579        F584   1.358       .  S
C580        C581   1.404       .  A
C580        F596   1.358       .  S
C581        C582   1.404       .  A
C582        F585   1.358   1_655  S
C583        C586   1.404       .  A
C583        C590   1.403       .  A
C586        C587   1.394       .  A
C586        F591   1.358       .  S
C587        C588   1.402       .  A
C587        F593   1.358       .  S
C588        C589   1.404       .  A
C589        C590   1.398       .  A
C589        F592   1.356       .  S
C590        F594   1.357       .  S
C597        C598   1.403       .  A
C597        C602   1.402   1_655  A
C597        F615   1.358       .  S
C598        C599   1.404   1_655  A
C598        C603   1.479       .  S
C599        C600   1.399       .  A
C599        F604   1.357       .  S
C600        C601   1.406       .  A
C600        F616   1.358       .  S
C601        C602   1.408       .  A
C602        F605   1.358       .  S
C603        C606   1.405       .  A
C603        C610   1.404       .  A
C606        C607   1.398       .  A
C606        F611   1.358       .  S
C607        C608   1.404       .  A
C607        F613   1.358       .  S
C608        C609   1.405       .  A
C609        C610   1.402       .  A
C609        F612   1.357       .  S
C610        F614   1.357       .  S
C617        C618   1.405       .  A
C617        C622   1.399       .  A
C617        F635   1.358       .  S
C618        C619   1.405       .  A
C618        C623   1.475       .  S
C619        C620   1.394       .  A
C619        F624   1.358       .  S
C620        C621   1.401       .  A
C620        F636   1.357       .  S
C621        C622   1.404       .  A
C622        F625   1.357       .  S
C623        C626   1.406       .  A
C623        C630   1.405   1_655  A
C626        C627   1.397   1_655  A
C626        F631   1.358       .  S
C627        C628   1.402       .  A
C627        F633   1.358       .  S
C628        C629   1.404       .  A
C629        C630   1.398       .  A
C629        F632   1.358       .  S
C630        F634   1.358       .  S
C637        C638   1.405       .  A
C637        C642   1.395       .  A
C637        F655   1.358       .  S
C638        C639   1.408       .  A
C638        C643   1.482       .  S
C639        C640   1.399       .  A
C639        F644   1.358       .  S
C640        C641   1.405       .  A
C640        F656   1.358       .  S
C641        C642   1.405       .  A
C642        F645   1.358       .  S
C643        C646   1.406       .  A
C643        C650   1.405       .  A
C646        C647   1.398       .  A
C646        F651   1.358       .  S
C647        C648   1.409       .  A
C647        F653   1.358       .  S
C648        C649   1.409       .  A
C649        C650   1.398       .  A
C649        F652   1.358       .  S
C650        F654   1.358       .  S
C657        C658   1.409       .  A
C657        C662   1.406       .  A
C657        F675   1.358       .  S
C658        C659   1.405       .  A
C658        C663   1.491       .  S
C659        C660   1.398       .  A
C659        F664   1.358       .  S
C660        C661   1.411       .  A
C660        F676   1.358       .  S
C661        C662   1.409       .  A
C662        F665   1.358       .  S
C663        C666   1.408       .  A
C663        C670   1.408   1_565  A
C666        C667   1.402   1_565  A
C666        F671   1.357       .  S
C667        C668   1.408       .  A
C667        F673   1.358       .  S
C668        C669   1.408       .  A
C669        C670   1.399       .  A
C669        F672   1.358       .  S
C670        F674   1.358       .  S
C677        C678   1.415   1_565  A
C677        C682   1.406       .  A
C677        F695   1.356   1_565  S
C678        C679   1.410   1_545  A
C678        C683   1.502       .  S
C679        C680   1.388       .  A
C679        F684   1.358       .  S
C680        C681   1.408       .  A
C680        F696   1.359       .  S
C681        C682   1.411       .  A
C682        F685   1.358       .  S
C683        C686   1.414       .  A
C683        C690   1.412       .  A
C686        C687   1.402       .  A
C686        F691   1.356       .  S
C687        C688   1.409       .  A
C687        F693   1.357       .  S
C688        C689   1.404       .  A
C689        C690   1.392       .  A
C689        F692   1.356       .  S
C690        F694   1.358       .  S
C697        C698   1.401       .  A
C697        C702   1.393       .  A
C697        F715   1.358       .  S
C698        C699   1.405       .  A
C698        C703   1.476       .  S
C699        C700   1.404       .  A
C699        F704   1.357       .  S
C700        C701   1.408       .  A
C700        F716   1.357       .  S
C701        C702   1.408       .  A
C702        F705   1.358       .  S
C703        C706   1.403       .  A
C703        C710   1.405       .  A
C706        C707   1.397       .  A
C706        F711   1.358       .  S
C707        C708   1.405       .  A
C707        F713   1.358       .  S
C708        C709   1.406       .  A
C709        C710   1.402       .  A
C709        F712   1.358       .  S
C710        F714   1.358       .  S
C717        C718   1.416       .  A
C717        C722   1.401       .  A
C717        F735   1.355       .  S
C718        C719   1.413       .  A
C718        C723   1.506       .  S
C719        C720   1.393       .  A
C719        F724   1.358       .  S
C720        C721   1.405       .  A
C720        F736   1.354       .  S
C721        C722   1.407       .  A
C722        F725   1.357       .  S
C723        C726   1.415       .  A
C723        C730   1.413       .  A
C726        C727   1.404       .  A
C726        F731   1.356       .  S
C727        C728   1.410       .  A
C727        F733   1.358   1_545  S
C728        C729   1.409       .  A
C729        C730   1.390       .  A
C729        F732   1.359       .  S
C730        F734   1.358       .  S
C737        C738   1.403       .  A
C737        C742   1.397       .  A
C737        F755   1.358       .  S
C738        C739   1.404       .  A
C738        C743   1.470       .  S
C739        C740   1.399       .  A
C739        F744   1.358       .  S
C740        C741   1.404       .  A
C740        F756   1.358       .  S
C741        C742   1.403       .  A
C742        F745   1.358       .  S
C743        C746   1.401       .  A
C743        C750   1.403       .  A
C746        C747   1.391       .  A
C746        F751   1.358       .  S
C747        C748   1.407       .  A
C747        F753   1.358       .  S
C748        C749   1.407       .  A
C749        C750   1.402       .  A
C749        F752   1.357       .  S
C750        F754   1.357       .  S
C757        C758   1.407   1_656  A
C757        C762   1.395       .  A
C757        F775   1.358       .  S
C758        C759   1.411       .  A
C758        C763   1.488       .  S
C759        C760   1.403       .  A
C759        F764   1.358       .  S
C760        C761   1.403   1_455  A
C760        F776   1.357       .  S
C761        C762   1.404   1_554  A
C762        F765   1.359       .  S
C763        C766   1.409   1_455  A
C763        C770   1.409       .  A
C766        C767   1.397       .  A
C766        F771   1.358       .  S
C767        C768   1.404   1_655  A
C767        F773   1.357       .  S
C768        C769   1.404       .  A
C769        C770   1.400       .  A
C769        F772   1.357       .  S
C770        F774   1.357       .  S
C777        C778   1.405   1_655  A
C777        C782   1.398       .  A
C777        F795   1.358       .  S
C778        C779   1.408   1_556  A
C778        C783   1.484       .  S
C779        C780   1.402       .  A
C779        F784   1.358       .  S
C780        C781   1.405       .  A
C780        F796   1.357       .  S
C781        C782   1.406   1_454  A
C782        F785   1.357       .  S
C783        C786   1.404   1_455  A
C783        C790   1.404       .  A
C786        C787   1.400       .  A
C786        F791   1.358   1_556  S
C787        C788   1.413       .  A
C787        F793   1.358   1_556  S
C788        C789   1.414   1_655  A
C789        C790   1.401       .  A
C789        F792   1.358       .  S
C790        F794   1.358       .  S
C797        C798   1.405       .  A
C797        C802   1.396       .  A
C797        F815   1.358       .  S
C798        C799   1.406       .  A
C798        C803   1.481       .  S
C799        C800   1.402       .  A
C799        F804   1.357       .  S
C800        C801   1.406       .  A
C800        F816   1.357   1_455  S
C801        C802   1.404       .  A
C802        F805   1.358       .  S
C803        C806   1.405       .  A
C803        C810   1.407       .  A
C806        C807   1.397       .  A
C806        F811   1.358       .  S
C807        C808   1.405       .  A
C807        F813   1.358       .  S
C808        C809   1.405       .  A
C809        C810   1.403       .  A
C809        F812   1.358       .  S
C810        F814   1.358       .  S
C817        C818   1.406       .  A
C817        C822   1.398       .  A
C817        F835   1.358       .  S
C818        C819   1.406       .  A
C818        C823   1.478       .  S
C819        C820   1.398       .  A
C819        F824   1.358       .  S
C820        C821   1.403       .  A
C820        F836   1.358       .  S
C821        C822   1.403       .  A
C822        F825   1.358       .  S
C823        C826   1.405       .  A
C823        C830   1.407       .  A
C826        C827   1.398       .  A
C826        F831   1.358   1_455  S
C827        C828   1.405       .  A
C827        F833   1.358   1_455  S
C828        C829   1.402       .  A
C829        C830   1.395       .  A
C829        F832   1.357       .  S
C830        F834   1.358       .  S
C837        C838   1.402       .  A
C837        C842   1.397       .  A
C837        F855   1.358       .  S
C838        C839   1.403   1_556  A
C838        C843   1.477       .  S
C839        C840   1.401       .  A
C839        F844   1.358       .  S
C840        C841   1.413   1_554  A
C840        F856   1.358       .  S
C841        C842   1.411       .  A
C842        F845   1.358       .  S
C843        C846   1.405   1_556  A
C843        C850   1.404       .  A
C846        C847   1.397       .  A
C846        F851   1.358       .  S
C847        C848   1.403   1_554  A
C847        F853   1.357       .  S
C848        C849   1.405       .  A
C849        C850   1.399       .  A
C849        F852   1.357       .  S
C850        F854   1.358       .  S
C857        C858   1.406   1_556  A
C857        C862   1.397       .  A
C857        F875   1.358       .  S
C858        C859   1.406       .  A
C858        C863   1.478       .  S
C859        C860   1.397       .  A
C859        F864   1.358       .  S
C860        C861   1.403       .  A
C860        F876   1.357       .  S
C861        C862   1.403   1_554  A
C862        F865   1.357       .  S
C863        C866   1.402       .  A
C863        C870   1.405       .  A
C866        C867   1.396       .  A
C866        F871   1.358   1_554  S
C867        C868   1.412       .  A
C867        F873   1.358   1_554  S
C868        C869   1.411       .  A
C869        C870   1.401       .  A
C869        F872   1.358       .  S
C870        F874   1.358       .  S
C877        C878   1.405       .  A
C877        C882   1.398       .  A
C877        F895   1.358       .  S
C878        C879   1.408       .  A
C878        C883   1.481       .  S
C879        C880   1.398       .  A
C879        F884   1.358       .  S
C880        C881   1.402       .  A
C880        F896   1.358       .  S
C881        C882   1.404       .  A
C882        F885   1.357       .  S
C883        C886   1.406       .  A
C883        C890   1.407       .  A
C886        C887   1.398       .  A
C886        F891   1.358       .  S
C887        C888   1.404       .  A
C887        F893   1.358       .  S
C888        C889   1.404       .  A
C889        C890   1.399       .  A
C889        F892   1.358       .  S
C890        F894   1.358       .  S
C897        C898   1.403       .  A
C897        C902   1.399       .  A
C897        F915   1.357       .  S
C898        C899   1.404       .  A
C898        C903   1.474       .  S
C899        C900   1.397       .  A
C899        F904   1.358       .  S
C900        C901   1.404       .  A
C900        F916   1.358       .  S
C901        C902   1.405       .  A
C902        F905   1.356       .  S
C903        C906   1.405       .  A
C903        C910   1.403       .  A
C906        C907   1.398       .  A
C906        F911   1.358       .  S
C907        C908   1.404       .  A
C907        F913   1.358       .  S
C908        C909   1.406       .  A
C909        C910   1.397       .  A
C909        F912   1.358       .  S
C910        F914   1.358       .  S
C917        C918   1.410   1_565  A
C917        C922   1.401       .  A
C917        F935   1.357       .  S
C918        C919   1.410       .  A
C918        C923   1.495       .  S
C919        C920   1.402       .  A
C919        F924   1.358       .  S
C920        C921   1.404       .  A
C920        F936   1.358       .  S
C921        C922   1.404   1_545  A
C922        F925   1.357   1_556  S
C923        C926   1.409   1_545  A
C923        C930   1.407   1_556  A
C926        C927   1.404       .  A
C926        F931   1.357       .  S
C927        C928   1.409   1_565  A
C927        F933   1.357       .  S
C928        C929   1.413   1_556  A
C929        C930   1.401       .  A
C929        F932   1.358       .  S
C930        F934   1.358       .  S
C937        C938   1.408   1_545  A
C937        C942   1.400   1_554  A
C937        F955   1.358   1_554  S
C938        C939   1.405       .  A
C938        C943   1.483       .  S
C939        C940   1.399       .  A
C939        F944   1.358       .  S
C940        C941   1.405   1_565  A
C940        F956   1.357       .  S
C941        C942   1.404   1_554  A
C942        F945   1.357       .  S
C943        C946   1.404       .  A
C943        C950   1.404   1_565  A
C946        C947   1.399       .  A
C946        F951   1.358       .  S
C947        C948   1.414       .  A
C947        F953   1.358       .  S
C948        C949   1.412   1_565  A
C949        C950   1.401       .  A
C949        F952   1.358       .  S
C950        F954   1.358       .  S
C957        C958   1.403       .  A
C957        C962   1.399       .  A
C957        F975   1.358       .  S
C958        C959   1.405       .  A
C958        C963   1.477       .  S
C959        C960   1.402       .  A
C959        F964   1.358       .  S
C960        C961   1.405       .  A
C960        F976   1.358       .  S
C961        C962   1.405       .  A
C962        F965   1.358       .  S
C963        C966   1.404       .  A
C963        C970   1.405       .  A
C966        C967   1.402   1_565  A
C966        F971   1.357   1_565  S
C967        C968   1.407   1_545  A
C967        F973   1.357       .  S
C968        C969   1.403       .  A
C969        C970   1.398       .  A
C969        F972   1.357       .  S
C970        F974   1.358       .  S
C977        C978   1.406       .  A
C977        C982   1.401   1_565  A
C977        F995   1.357   1_565  S
C978        C979   1.407       .  A
C978        C983   1.484       .  S
C979        C980   1.399       .  A
C979        F984   1.358       .  S
C980        C981   1.404       .  A
C980        F996   1.358       .  S
C981        C982   1.405   1_565  A
C982        F985   1.357       .  S
C983        C986   1.408       .  A
C983        C990   1.405       .  A
C986        C987   1.402       .  A
C986        F991   1.358       .  S
C987        C988   1.405       .  A
C987        F993   1.358       .  S
C988        C989   1.405       .  A
C989        C990   1.399       .  A
C989        F992   1.358       .  S
C990        F994   1.358       .  S
C997        C998   1.405       .  A
C997       C1002   1.400       .  A
C997       F1015   1.358       .  S
C998        C999   1.402       .  A
C998       C1003   1.470       .  S
C999       C1000   1.393       .  A
C999       F1004   1.358       .  S
C1000      C1001   1.404       .  A
C1000      F1016   1.358       .  S
C1001      C1002   1.405       .  A
C1002      F1005   1.358       .  S
C1003      C1006   1.404       .  A
C1003      C1010   1.403       .  A
C1006      C1007   1.401   1_655  A
C1006      F1011   1.357   1_655  S
C1007      C1008   1.405   1_455  A
C1007      F1013   1.357       .  S
C1008      C1009   1.403       .  A
C1009      C1010   1.391       .  A
C1009      F1012   1.358       .  S
C1010      F1014   1.358       .  S
C1017      C1018   1.407       .  A
C1017      C1022   1.398       .  A
C1017      F1035   1.358       .  S
C1018      C1019   1.405       .  A
C1018      C1023   1.482       .  S
C1019      C1020   1.400       .  A
C1019      F1024   1.357       .  S
C1020      C1021   1.404       .  A
C1020      F1036   1.357       .  S
C1021      C1022   1.403       .  A
C1022      F1025   1.358       .  S
C1023      C1026   1.407       .  A
C1023      C1030   1.405       .  A
C1026      C1027   1.402       .  A
C1026      F1031   1.358       .  S
C1027      C1028   1.405       .  A
C1027      F1033   1.358       .  S
C1028      C1029   1.406       .  A
C1029      C1030   1.399       .  A
C1029      F1032   1.358       .  S
C1030      F1034   1.358       .  S
C1037      C1038   1.405   1_565  A
C1037      C1042   1.396       .  A
C1037      F1055   1.358       .  S
C1038      C1039   1.407   1_545  A
C1038      C1043   1.482       .  S
C1039      C1040   1.401       .  A
C1039      F1044   1.358   1_565  S
C1040      C1041   1.406       .  A
C1040      F1056   1.358       .  S
C1041      C1042   1.405       .  A
C1042      F1045   1.357       .  S
C1043      C1046   1.405       .  A
C1043      C1050   1.406       .  A
C1046      C1047   1.397       .  A
C1046      F1051   1.358       .  S
C1047      C1048   1.407       .  A
C1047      F1053   1.358       .  S
C1048      C1049   1.411       .  A
C1049      C1050   1.401       .  A
C1049      F1052   1.358       .  S
C1050      F1054   1.358       .  S
C1057      C1058   1.409       .  A
C1057      C1062   1.402       .  A
C1057      F1075   1.357       .  S
C1058      C1059   1.408       .  A
C1058      C1063   1.489       .  S
C1059      C1060   1.397       .  A
C1059      F1064   1.358       .  S
C1060      C1061   1.405       .  A
C1060      F1076   1.357       .  S
C1061      C1062   1.405       .  A
C1062      F1065   1.357       .  S
C1063      C1066   1.409       .  A
C1063      C1070   1.405       .  A
C1066      C1067   1.406       .  A
C1066      F1071   1.358       .  S
C1067      C1068   1.409       .  A
C1067      F1073   1.358       .  S
C1068      C1069   1.409       .  A
C1069      C1070   1.396       .  A
C1069      F1072   1.358       .  S
C1070      F1074   1.358       .  S
C1077      C1078   1.402       .  A
C1077      C1082   1.400       .  A
C1077      F1095   1.357       .  S
C1078      C1079   1.402       .  A
C1078      C1083   1.469       .  S
C1079      C1080   1.393       .  A
C1079      F1084   1.358       .  S
C1080      C1081   1.404       .  A
C1080      F1096   1.357       .  S
C1081      C1082   1.408       .  A
C1082      F1085   1.357       .  S
C1083      C1086   1.403       .  A
C1083      C1090   1.404       .  A
C1086      C1087   1.396       .  A
C1086      F1091   1.358       .  S
C1087      C1088   1.403       .  A
C1087      F1093   1.358   1_565  S
C1088      C1089   1.404       .  A
C1089      C1090   1.399       .  A
C1089      F1092   1.358       .  S
C1090      F1094   1.358       .  S
C1097      C1098   1.404       .  A
C1097      C1102   1.399       .  A
C1097      F1115   1.357       .  S
C1098      C1099   1.405       .  A
C1098      C1103   1.475       .  S
C1099      C1100   1.396       .  A
C1099      F1104   1.358       .  S
C1100      C1101   1.404       .  A
C1100      F1116   1.357       .  S
C1101      C1102   1.406       .  A
C1102      F1105   1.357       .  S
C1103      C1106   1.405       .  A
C1103      C1110   1.405       .  A
C1106      C1107   1.399       .  A
C1106      F1111   1.358       .  S
C1107      C1108   1.404       .  A
C1107      F1113   1.358       .  S
C1108      C1109   1.403       .  A
C1109      C1110   1.397       .  A
C1109      F1112   1.358       .  S
C1110      F1114   1.358       .  S
C1117      C1118   1.404       .  A
C1117      C1122   1.398       .  A
C1117      F1135   1.358       .  S
C1118      C1119   1.404       .  A
C1118      C1123   1.475       .  S
C1119      C1120   1.395       .  A
C1119      F1124   1.358       .  S
C1120      C1121   1.404       .  A
C1120      F1136   1.357       .  S
C1121      C1122   1.406       .  A
C1122      F1125   1.357       .  S
C1123      C1126   1.406       .  A
C1123      C1130   1.404       .  A
C1126      C1127   1.399       .  A
C1126      F1131   1.358       .  S
C1127      C1128   1.403       .  A
C1127      F1133   1.358       .  S
C1128      C1129   1.404       .  A
C1129      C1130   1.396       .  A
C1129      F1132   1.358       .  S
C1130      F1134   1.358       .  S
C1137      C1138   1.409       .  A
C1137      C1142   1.400   1_545  A
C1137      F1155   1.357       .  S
C1138      C1139   1.409   1_545  A
C1138      C1143   1.488       .  S
C1139      C1140   1.397       .  A
C1139      F1144   1.358       .  S
C1140      C1141   1.402       .  A
C1140      F1156   1.357       .  S
C1141      C1142   1.404       .  A
C1142      F1145   1.357       .  S
C1143      C1146   1.410       .  A
C1143      C1150   1.407       .  A
C1146      C1147   1.404       .  A
C1146      F1151   1.358       .  S
C1147      C1148   1.405       .  A
C1147      F1153   1.358       .  S
C1148      C1149   1.406       .  A
C1149      C1150   1.396       .  A
C1149      F1152   1.358       .  S
C1150      F1154   1.358       .  S
C1157      C1158   1.406       .  A
C1157      C1162   1.397       .  A
C1157      F1175   1.358   1_455  S
C1158      C1159   1.404       .  A
C1158      C1163   1.476   1_455  S
C1159      C1160   1.396       .  A
C1159      F1164   1.358       .  S
C1160      C1161   1.405       .  A
C1160      F1176   1.357       .  S
C1161      C1162   1.403       .  A
C1162      F1165   1.357       .  S
C1163      C1166   1.404       .  A
C1163      C1170   1.404       .  A
C1166      C1167   1.398       .  A
C1166      F1171   1.358       .  S
C1167      C1168   1.407       .  A
C1167      F1173   1.358       .  S
C1168      C1169   1.409       .  A
C1169      C1170   1.397       .  A
C1169      F1172   1.358       .  S
C1170      F1174   1.358       .  S
C1177      C1178   1.403       .  A
C1177      C1182   1.400       .  A
C1177      F1195   1.357       .  S
C1178      C1179   1.405       .  A
C1178      C1183   1.476       .  S
C1179      C1180   1.397       .  A
C1179      F1184   1.358       .  S
C1180      C1181   1.404       .  A
C1180      F1196   1.357       .  S
C1181      C1182   1.406       .  A
C1182      F1185   1.357       .  S
C1183      C1186   1.404       .  A
C1183      C1190   1.405       .  A
C1186      C1187   1.397       .  A
C1186      F1191   1.358       .  S
C1187      C1188   1.405       .  A
C1187      F1193   1.358   1_455  S
C1188      C1189   1.404       .  A
C1189      C1190   1.401       .  A
C1189      F1192   1.358       .  S
C1190      F1194   1.358       .  S
C1197      C1198   1.404       .  A
C1197      C1202   1.402       .  A
C1197      F1215   1.357       .  S
C1198      C1199   1.405       .  A
C1198      C1203   1.480       .  S
C1199      C1200   1.399       .  A
C1199      F1204   1.358       .  S
C1200      C1201   1.404       .  A
C1200      F1216   1.358       .  S
C1201      C1202   1.406       .  A
C1202      F1205   1.357       .  S
C1203      C1206   1.404       .  A
C1203      C1210   1.405       .  A
C1206      C1207   1.402       .  A
C1206      F1211   1.358       .  S
C1207      C1208   1.406       .  A
C1207      F1213   1.358       .  S
C1208      C1209   1.406       .  A
C1209      C1210   1.401       .  A
C1209      F1212   1.357   1_565  S
C1210      F1214   1.358       .  S
C1217      C1218   1.405       .  A
C1217      C1222   1.400   1_455  A
C1217      F1235   1.358       .  S
C1218      C1219   1.407   1_455  A
C1218      C1223   1.484       .  S
C1219      C1220   1.402       .  A
C1219      F1224   1.358       .  S
C1220      C1221   1.406       .  A
C1220      F1236   1.358       .  S
C1221      C1222   1.407       .  A
C1222      F1225   1.358       .  S
C1223      C1226   1.406       .  A
C1223      C1230   1.406       .  A
C1226      C1227   1.399       .  A
C1226      F1231   1.358       .  S
C1227      C1228   1.404       .  A
C1227      F1233   1.358       .  S
C1228      C1229   1.406       .  A
C1229      C1230   1.403       .  A
C1229      F1232   1.357       .  S
C1230      F1234   1.357       .  S
C1237      C1238   1.405   1_455  A
C1237      C1242   1.403       .  A
C1237      F1255   1.358       .  S
C1238      C1239   1.407       .  A
C1238      C1243   1.484       .  S
C1239      C1240   1.399       .  A
C1239      F1244   1.358       .  S
C1240      C1241   1.404       .  A
C1240      F1256   1.357       .  S
C1241      C1242   1.408   1_655  A
C1242      F1245   1.357       .  S
C1243      C1246   1.404       .  A
C1243      C1250   1.408       .  A
C1246      C1247   1.399       .  A
C1246      F1251   1.358       .  S
C1247      C1248   1.405       .  A
C1247      F1253   1.358       .  S
C1248      C1249   1.405       .  A
C1249      C1250   1.404       .  A
C1249      F1252   1.358       .  S
C1250      F1254   1.357       .  S
C1257      C1258   1.404       .  A
C1257      C1262   1.398       .  A
C1257      F1275   1.357       .  S
C1258      C1259   1.404       .  A
C1258      C1263   1.473       .  S
C1259      C1260   1.397       .  A
C1259      F1264   1.358       .  S
C1260      C1261   1.405       .  A
C1260      F1276   1.358       .  S
C1261      C1262   1.404       .  A
C1262      F1265   1.358       .  S
C1263      C1266   1.403       .  A
C1263      C1270   1.405       .  A
C1266      C1267   1.398       .  A
C1266      F1271   1.358   1_545  S
C1267      C1268   1.405       .  A
C1267      F1273   1.357   1_545  S
C1268      C1269   1.402       .  A
C1269      C1270   1.395       .  A
C1269      F1272   1.357       .  S
C1270      F1274   1.358       .  S
C1277      C1278   1.406   1_545  A
C1277      C1282   1.398       .  A
C1277      F1295   1.358       .  S
C1278      C1279   1.404       .  A
C1278      C1283   1.480       .  S
C1279      C1280   1.401   1_565  A
C1279      F1284   1.358       .  S
C1280      C1281   1.407       .  A
C1280      F1296   1.358       .  S
C1281      C1282   1.406       .  A
C1282      F1285   1.358       .  S
C1283      C1286   1.406       .  A
C1283      C1290   1.404       .  A
C1286      C1287   1.404       .  A
C1286      F1291   1.357       .  S
C1287      C1288   1.408       .  A
C1287      F1293   1.357       .  S
C1288      C1289   1.404       .  A
C1289      C1290   1.394       .  A
C1289      F1292   1.358       .  S
C1290      F1294   1.358   1_565  S
C1297      C1298   1.405       .  A
C1297      C1302   1.396       .  A
C1297      F1315   1.358       .  S
C1298      C1299   1.404       .  A
C1298      C1303   1.475       .  S
C1299      C1300   1.400       .  A
C1299      F1304   1.358       .  S
C1300      C1301   1.405       .  A
C1300      F1316   1.357       .  S
C1301      C1302   1.402       .  A
C1302      F1305   1.357       .  S
C1303      C1306   1.404       .  A
C1303      C1310   1.404       .  A
C1306      C1307   1.397       .  A
C1306      F1311   1.358       .  S
C1307      C1308   1.405       .  A
C1307      F1313   1.358       .  S
C1308      C1309   1.406       .  A
C1309      C1310   1.400       .  A
C1309      F1312   1.358       .  S
C1310      F1314   1.358       .  S
C1317      C1318   1.405       .  A
C1317      C1322   1.401       .  A
C1317      F1335   1.358       .  S
C1318      C1319   1.406       .  A
C1318      C1323   1.482       .  S
C1319      C1320   1.402       .  A
C1319      F1324   1.358       .  S
C1320      C1321   1.406       .  A
C1320      F1336   1.358       .  S
C1321      C1322   1.407       .  A
C1322      F1325   1.358       .  S
C1323      C1326   1.406       .  A
C1323      C1330   1.405       .  A
C1326      C1327   1.404       .  A
C1326      F1331   1.357       .  S
C1327      C1328   1.406       .  A
C1327      F1333   1.357   1_545  S
C1328      C1329   1.404       .  A
C1329      C1330   1.398       .  A
C1329      F1332   1.357       .  S
C1330      F1334   1.358       .  S
C1337      C1338   1.402   1_545  A
C1337      C1342   1.395       .  A
C1337      F1355   1.358       .  S
C1338      C1339   1.405       .  A
C1338      C1343   1.474       .  S
C1339      C1340   1.403   1_565  A
C1339      F1344   1.358       .  S
C1340      C1341   1.408       .  A
C1340      F1356   1.358       .  S
C1341      C1342   1.406       .  A
C1342      F1345   1.358       .  S
C1343      C1346   1.404       .  A
C1343      C1350   1.403       .  A
C1346      C1347   1.396       .  A
C1346      F1351   1.358       .  S
C1347      C1348   1.402       .  A
C1347      F1353   1.357       .  S
C1348      C1349   1.406       .  A
C1349      C1350   1.401       .  A
C1349      F1352   1.358       .  S
C1350      F1354   1.357       .  S
C1357      C1358   1.408       .  A
C1357      C1362   1.403       .  A
C1357      F1375   1.358       .  S
C1358      C1359   1.406       .  A
C1358      C1363   1.492       .  S
C1359      C1360   1.401       .  A
C1359      F1364   1.358       .  S
C1360      C1361   1.412       .  A
C1360      F1376   1.358       .  S
C1361      C1362   1.411       .  A
C1362      F1365   1.358       .  S
C1363      C1366   1.409       .  A
C1363      C1370   1.409       .  A
C1366      C1367   1.400       .  A
C1366      F1371   1.358       .  S
C1367      C1368   1.405       .  A
C1367      F1373   1.357       .  S
C1368      C1369   1.405       .  A
C1369      C1370   1.401       .  A
C1369      F1372   1.357       .  S
C1370      F1374   1.357       .  S
C1377      C1378   1.410   1_455  A
C1377      C1382   1.400       .  A
C1377      F1395   1.358       .  S
C1378      C1379   1.412   1_655  A
C1378      C1383   1.499       .  S
C1379      C1380   1.404       .  A
C1379      F1384   1.357   1_455  S
C1380      C1381   1.404       .  A
C1380      F1396   1.357       .  S
C1381      C1382   1.406       .  A
C1382      F1385   1.358       .  S
C1383      C1386   1.410       .  A
C1383      C1390   1.413       .  A
C1386      C1387   1.401       .  A
C1386      F1391   1.358       .  S
C1387      C1388   1.407       .  A
C1387      F1393   1.358       .  S
C1388      C1389   1.404       .  A
C1389      C1390   1.403       .  A
C1389      F1392   1.358       .  S
C1390      F1394   1.356       .  S
C1397      C1398   1.403       .  A
C1397      C1402   1.398       .  A
C1397      F1415   1.357       .  S
C1398      C1399   1.406       .  A
C1398      C1403   1.478       .  S
C1399      C1400   1.399       .  A
C1399      F1404   1.358       .  S
C1400      C1401   1.405       .  A
C1400      F1416   1.358       .  S
C1401      C1402   1.405       .  A
C1402      F1405   1.357       .  S
C1403      C1406   1.405       .  A
C1403      C1410   1.405       .  A
C1406      C1407   1.399       .  A
C1406      F1411   1.358       .  S
C1407      C1408   1.404       .  A
C1407      F1413   1.358       .  S
C1408      C1409   1.403       .  A
C1409      C1410   1.398       .  A
C1409      F1412   1.358   1_455  S
C1410      F1414   1.357       .  S
C1417      C1418   1.405       .  A
C1417      C1422   1.398       .  A
C1417      F1435   1.358       .  S
C1418      C1419   1.403       .  A
C1418      C1423   1.476       .  S
C1419      C1420   1.398       .  A
C1419      F1424   1.358       .  S
C1420      C1421   1.406       .  A
C1420      F1436   1.357       .  S
C1421      C1422   1.404       .  A
C1422      F1425   1.357       .  S
C1423      C1426   1.404       .  A
C1423      C1430   1.405       .  A
C1426      C1427   1.397       .  A
C1426      F1431   1.358       .  S
C1427      C1428   1.405       .  A
C1427      F1433   1.358       .  S
C1428      C1429   1.405       .  A
C1429      C1430   1.400       .  A
C1429      F1432   1.358       .  S
C1430      F1434   1.358       .  S
C1437      C1438   1.411   1_655  A
C1437      C1442   1.392       .  A
C1437      F1455   1.357       .  S
C1438      C1439   1.414   1_455  A
C1438      C1443   1.501       .  S
C1439      C1440   1.400       .  A
C1439      F1444   1.357   1_655  S
C1440      C1441   1.408       .  A
C1440      F1456   1.358       .  S
C1441      C1442   1.410       .  A
C1442      F1445   1.359       .  S
C1443      C1446   1.413       .  A
C1443      C1450   1.413       .  A
C1446      C1447   1.395       .  A
C1446      F1451   1.357       .  S
C1447      C1448   1.404       .  A
C1447      F1453   1.355       .  S
C1448      C1449   1.405       .  A
C1449      C1450   1.396       .  A
C1449      F1452   1.355       .  S
C1450      F1454   1.357       .  S
C1457      C1458   1.404       .  A
C1457      C1462   1.401       .  A
C1457      F1475   1.358       .  S
C1458      C1459   1.405       .  A
C1458      C1463   1.478       .  S
C1459      C1460   1.401       .  A
C1459      F1464   1.358       .  S
C1460      C1461   1.406       .  A
C1460      F1476   1.358       .  S
C1461      C1462   1.406       .  A
C1462      F1465   1.358       .  S
C1463      C1466   1.401       .  A
C1463      C1470   1.406       .  A
C1466      C1467   1.394       .  A
C1466      F1471   1.358       .  S
C1467      C1468   1.407       .  A
C1467      F1473   1.357       .  S
C1468      C1469   1.408       .  A
C1469      C1470   1.406       .  A
C1469      F1472   1.357       .  S
C1470      F1474   1.357       .  S
