geometry optimzed in LAMMPS
_audit_creation_date              2020-11-30 
_audit_creation_method            'lammps2cif' 
_symmetry_space_group_name_H-M    'P1' 
_symmetry_Int_Tables_number       1 
_symmetry_cell_setting            triclinic 
loop_ 
_symmetry_equiv_pos_as_xyz 
  x,y,z 
_cell_length_a                    42.57394623 
_cell_length_b                    43.79313430751981 
_cell_length_c                    42.51563300937421 
_cell_angle_alpha                 88.65205464240063 
_cell_angle_beta                  88.46261520882021 
_cell_angle_gamma                 92.24578906660665 
loop_ 
_atom_site_label 
_atom_site_type_symbol 
_atom_site_fract_x 
_atom_site_fract_y 
_atom_site_fract_z 
_atom_site_charge 
C1          C  0.25054453  0.16153594  0.04806924     0.42400
N2          N  0.24301772  0.19486064  0.01038484     0.01300
C3          C  0.35129605  0.29936582  0.43544706    -0.06600
H4          H  0.34326079  0.31157850  0.05820451     0.06800
C5          C  0.21740966  0.33757823  0.03569422    -0.06900
Co6        Co  0.30181850  0.22806941  0.48506335     0.74200
N7          N  0.31973659  0.28187491  0.02493018    -0.26100
Co8        Co  0.29804307  0.30849128  0.98962332     0.74100
C9          C  0.23890320  0.35330926  0.05630595     0.42500
N10         N  0.18987310  0.27069966  0.00814859     0.00900
N11         N  0.26502420  0.32770124  0.02171898     0.01000
N12         N  0.34160247  0.24953923  0.42842179    -0.47000
H13         H  0.30399217  0.17389305  0.04674625     0.06800
N14         N  0.31955324  0.25186729  0.02167351     0.01300
N15         N  0.28143702  0.33437601  0.45323273     0.01000
C16         C  0.27282687  0.36242303  0.41122015     0.42600
N17         N  0.19248817  0.24078018  0.00717511    -0.25600
C18         C  0.29819283  0.18461830  0.42670738    -0.06500
N19         N  0.22871315  0.17411091  0.02963922    -0.46700
N20         N  0.29405634  0.35635247  0.43392226    -0.46900
C21         C  0.27306425  0.17040823  0.40801177     0.42400
N22         N  0.32666021  0.25840429  0.45379536     0.01300
N23         N  0.20516731  0.24810364  0.43752349    -0.25600
N24         N  0.27358096  0.19745338  0.01464322    -0.26100
N25         N  0.20313867  0.27792013  0.43855292     0.00900
H26         H  0.18310027  0.21414527  0.40920190     0.06800
H27         H  0.22326121  0.34040081  0.40830801     0.06800
N28         N  0.33049746  0.28806197  0.45780289    -0.26100
N29         N  0.23507403  0.32300495  0.01517981    -0.25800
N30         N  0.25391956  0.20199661  0.44201145     0.01300
C31         C  0.34836003  0.25910845  0.06265122     0.42700
C32         C  0.17254290  0.22752347  0.02845166    -0.07000
N33         N  0.25233354  0.32700423  0.44596346    -0.25800
H34         H  0.19221041  0.33778036  0.03528540     0.06800
N35         N  0.33584184  0.23811797  0.04334938    -0.47000
H36         H  0.16841671  0.20314898  0.03200105     0.06800
C37         C  0.17276350  0.26467503  0.40058636     0.42500
C38         C  0.28069875  0.17741857  0.03814104    -0.06500
Co39       Co  0.22375969  0.22268128  0.47408272     0.73800
N40         N  0.16802121  0.27880077  0.02891676    -0.46700
C41         C  0.35904595  0.27339603  0.41552856     0.42800
N42         N  0.24629067  0.18219087  0.41999302    -0.46700
Co43       Co  0.21732155  0.29900432  0.97714313     0.73900
C44         C  0.24607337  0.34106823  0.41888668    -0.07000
C45         C  0.33758350  0.28879396  0.05026670    -0.06600
N46         N  0.28423322  0.20369367  0.44668891    -0.26100
N47         N  0.26856598  0.34636719  0.04618146    -0.46900
H48         H  0.35860443  0.32317695  0.43218312     0.06800
C49         C  0.18839293  0.23803002  0.41351570    -0.07000
Cl50       Cl  0.25925204  0.26381366  0.98161639    -0.50000
C51         C  0.15659839  0.25260836  0.04313440     0.42500
H52         H  0.32260757  0.17897334  0.42734506     0.06800
N53         N  0.18336819  0.28852389  0.41766033    -0.46700
C54         C  0.12565086  0.24820383  0.05868596     0.80200
N55         N  0.11752096  0.26261949  0.08569429    -0.78200
C56         C  0.09051239  0.25314389  0.10166725     0.82600
N57         N  0.07332331  0.22871927  0.09135812    -0.78100
C58         C  0.08151896  0.21400017  0.06513756     0.82700
N59         N  0.10775881  0.22415867  0.04904241    -0.79800
C60         C  0.36760676  0.24782413  0.08942675     0.80200
N61         N  0.36410526  0.21708201  0.09368951    -0.78200
C62         C  0.38307165  0.20097579  0.11185029     0.82600
N63         N  0.40569851  0.21615665  0.12719165    -0.78100
C64         C  0.41077737  0.24682731  0.12418038     0.82700
N65         N  0.39208628  0.26330323  0.10409854    -0.79800
C66         C  0.09541648  0.25998088  0.36124302     0.80200
N67         N  0.12595221  0.26899104  0.36664291    -0.78200
C68         C  0.13906111  0.26054102  0.39443298     0.82600
N69         N  0.12233070  0.24210390  0.41528024    -0.78100
C70         C  0.09264246  0.23256521  0.40962900     0.82700
N71         N  0.07943871  0.24142573  0.38258580    -0.79800
C72         C  0.41788269  0.24554822  0.36060597     0.80200
N73         N  0.42034470  0.21862689  0.37673950    -0.78200
C74         C  0.41007998  0.21589272  0.40704016     0.82600
N75         N  0.39940240  0.24046837  0.42133143    -0.78100
C76         C  0.39057585  0.26496255  0.40447467     0.82700
N77         N  0.40028560  0.26799254  0.37349728    -0.79800
N78         N  0.46871361  0.10036653  0.45302038    -0.36700
N79         N  0.42499186  0.08908976  0.00608945    -0.57200
N80         N  0.48004449  0.07577065  0.04936716    -0.36700
N81         N  0.03915648  0.10605537  0.98820206    -0.57200
C82         C  0.44133404  0.11072314  0.44236383     0.26900
C83         C  0.00279346  0.11578280  0.42254923     0.26900
C84         C  0.45714265  0.08039309  0.07090311     0.26900
C85         C  0.01095429  0.07443489  0.05926070     0.26900
C86         C  0.40774345  0.08999388  0.48747521     0.35500
C87         C  0.41214179  0.08053477  0.03437640     0.35500
C88         C  0.03625209  0.09877853  0.46403404     0.35500
C89         C  0.03749162  0.08269135  0.00912033     0.35500
C90         C  0.44850243  0.12946689  0.41596892    -0.22000
C91         C  0.99554510  0.13349483  0.39653745    -0.22000
C92         C  0.47050079  0.08610330  0.09972392    -0.22000
C93         C  0.00600473  0.07754583  0.09137276    -0.22000
C94         C  0.37924320  0.08161509  0.50230750    -0.23000
C95         C  0.37989506  0.07640920  0.03151305    -0.23000
C96         C  0.02704796  0.06833641  0.46877112    -0.23000
C97         C  0.02926208  0.05552635  0.99480245    -0.23000
C98         C  0.41130084  0.10681005  0.45854839    -0.18400
C99         C  0.03215780  0.11707194  0.43751240    -0.18400
C100        C  0.03658976  0.08847263  0.04128202    -0.18400
C101        C  0.42645083  0.08844792  0.06281843    -0.18400
H102        H  0.43356942  0.14160566  0.40098886     0.14500
H103        H  0.01154471  0.14773902  0.38185041     0.14500
H104        H  0.45834207  0.09271568  0.12103646     0.14500
H105        H  0.02336134  0.08479623  0.10808711     0.14500
H106        H  0.35610804  0.08323507  0.49258485     0.12800
H107        H  0.36266530  0.07271226  0.05054420     0.12800
H108        H  0.01683413  0.05311495  0.45202088     0.12800
H109        H  0.02428174  0.03340330  0.00612420     0.12800
H110        H  0.47181183  0.08692513  0.47293172     0.26100
H111        H  0.47619133  0.07436522  0.02542321     0.26100
C112        C  0.08691894  0.16635422  0.23722029     0.42400
N113        N  0.04983447  0.19780847  0.24816724     0.01300
C114        C  0.45415121  0.28671237  0.15035069    -0.06600
H115        H  0.06988690  0.31213801  0.13452805     0.06800
C116        C  0.06520878  0.33846497  0.26552728    -0.06900
Co117      Co  0.51696761  0.22501727  0.19090403     0.74200
N118        N  0.04732606  0.27980528  0.16808982    -0.26100
Co119      Co  0.51214140  0.30562942  0.19382591     0.74100
C120        C  0.08083862  0.35794590  0.24140194     0.42500
N121        N  0.04342703  0.27349444  0.29994382     0.00900
N122        N  0.04506250  0.32796335  0.22079068     0.01000
N123        N  0.46050359  0.23608060  0.14975088    -0.47000
H124        H  0.07683429  0.17077689  0.18407339     0.06800
N125        N  0.04934112  0.24986779  0.17140040     0.01300
N126        N  0.47459706  0.32495306  0.21847305     0.01000
C127        C  0.43338541  0.35054469  0.23178891     0.42600
N128        N  0.04548738  0.24374118  0.29768859    -0.25600
C129        C  0.46124309  0.17515925  0.19983536    -0.06500
N130        N  0.07084192  0.18002199  0.26056989    -0.46700
N131        N  0.45407571  0.34483994  0.20786170    -0.46900
C132        C  0.44529735  0.15974638  0.22728051     0.42400
N133        N  0.48295596  0.24953887  0.16591156     0.01300
N134        N  0.47229139  0.23739418  0.29528858    -0.25600
N135        N  0.05012171  0.19724313  0.21725939    -0.26100
N136        N  0.46979760  0.26719313  0.29700470     0.00900
H137        H  0.44805079  0.19948752  0.31969796     0.06800
H138        H  0.43633859  0.33213684  0.28288442     0.06800
N139        N  0.48004577  0.27949600  0.16683597    -0.26100
N140        N  0.04309255  0.32228971  0.25139706    -0.25800
N141        N  0.47875845  0.19410120  0.24279129     0.01300
C142        C  0.08351785  0.26156102  0.13426158     0.42700
C143        C  0.06893208  0.23449553  0.31535298    -0.07000
N144        N  0.47045250  0.31841752  0.24875046    -0.25800
H145        H  0.06759057  0.33919848  0.29075259     0.06800
N146        N  0.07083468  0.23874652  0.15268434    -0.47000
H147        H  0.07474302  0.21094493  0.31957486     0.06800
C148        C  0.43368874  0.24865700  0.32926249     0.42500
C149        C  0.07250003  0.17770290  0.20800373    -0.06500
Co150      Co  0.50993556  0.21801915  0.27110671     0.73800
N151        N  0.06404364  0.28516667  0.31985797    -0.46700
C152        C  0.44103993  0.25739069  0.13879068     0.42800
N153        N  0.45800440  0.17260591  0.25279631    -0.46700
Co154      Co  0.50443680  0.29594633  0.27568121     0.73900
C155        C  0.44431378  0.33170135  0.25851441    -0.07000
C156        C  0.06789080  0.28925526  0.14472181    -0.06600
N157        N  0.48147744  0.19602914  0.21184985    -0.26100
N158        N  0.06653441  0.35063116  0.21380500    -0.46900
H159        H  0.44500690  0.30930461  0.14784792     0.06800
C160        C  0.45021182  0.22377557  0.31440902    -0.07000
Cl161      Cl  0.51096768  0.26111594  0.23289486    -0.50000
C162        C  0.08184679  0.26196899  0.32983941     0.42500
H163        H  0.45963532  0.16983551  0.17519556     0.06800
N164        N  0.44760020  0.27495180  0.31756485    -0.46700
C165        C  0.22706700  0.37410989  0.08142986     0.80200
N166        N  0.19496404  0.37458709  0.08497721    -0.78200
C167        C  0.18066402  0.39268765  0.10592820     0.82600
N168        N  0.19929528  0.41075332  0.12332637    -0.78100
C169        C  0.23119437  0.41169116  0.12072142     0.82700
N170        N  0.24567359  0.39321565  0.09932047    -0.79800
C171        C  0.24113489  0.14031129  0.07556656     0.80200
N172        N  0.26186816  0.12429797  0.09395855    -0.78200
C173        C  0.25020096  0.11009266  0.12151235     0.82600
N174        N  0.21974150  0.11344762  0.12961700    -0.78100
C175        C  0.19865045  0.12205488  0.10886331     0.82700
N176        N  0.20943430  0.13606200  0.08165391    -0.79800
C177        C  0.27280869  0.13774364  0.39892626     0.80200
N178        N  0.27692424  0.12800506  0.36851961    -0.78200
C179        C  0.27305618  0.09733871  0.36216617     0.82600
N180        N  0.26339930  0.07755523  0.38591084    -0.78100
C181        C  0.25878265  0.08732180  0.41567027     0.82700
N182        N  0.26356691  0.11718619  0.42185115    -0.79800
C183        C  0.25278967  0.43142496  0.36322732     0.80200
N184        N  0.27155130  0.40872348  0.37424805    -0.78200
C185        C  0.26327842  0.39381518  0.40238496     0.82600
N186        N  0.23655597  0.40136111  0.41770638    -0.78100
C187        C  0.21658822  0.42107930  0.40541885     0.82700
N188        N  0.22491412  0.43610226  0.37834862    -0.79800
N189        N  0.15058487  0.04180184  0.04823454    -0.36700
N190        N  0.08022930  0.49116842  0.07673779    -0.57200
N191        N  0.10753569  0.43640578  0.04578126    -0.36700
N192        N  0.15641841  0.47299336  0.51795939    -0.57200
C193        C  0.11898989  0.03809441  0.05238363     0.26900
C194        C  0.15497332  0.03210411  0.52000589     0.26900
C195        C  0.07716041  0.43413651  0.05506912     0.26900
C196        C  0.10771583  0.42627957  0.51649277     0.26900
C197        C  0.08246284  0.01524579  0.09132047     0.35500
C198        C  0.06616701  0.46887386  0.09500279     0.35500
C199        C  0.18581256  0.98846849  0.51203070     0.35500
C200        C  0.16166255  0.44480087  0.50797221     0.35500
C201        C  0.10599419  0.02687594  0.02520056    -0.22000
C202        C  0.12711231  0.02508465  0.50519345    -0.22000
C203        C  0.05863570  0.42501255  0.03058662    -0.22000
C204        C  0.07774426  0.41681089  0.50785871    -0.22000
C205        C  0.06631337  0.01059438  0.11979370    -0.23000
C206        C  0.05542522  0.48153926  0.12273200    -0.23000
C207        C  0.20820070  0.97137869  0.49711608    -0.23000
C208        C  0.19198292  0.44417238  0.49506953    -0.23000
C209        C  0.10294036  0.04008769  0.08173698    -0.18400
C210        C  0.18404285  0.02058398  0.51101933    -0.18400
C211        C  0.13575248  0.42658066  0.49830397    -0.18400
C212        C  0.06795754  0.43769775  0.08663772    -0.18400
H213        H  0.08162240  0.02036534  0.02148128     0.14500
H214        H  0.12492051  0.01559651  0.48221661     0.14500
H215        H  0.03351743  0.42014365  0.03144085     0.14500
H216        H  0.07104136  0.40786216  0.48542180     0.14500
H217        H  0.06315420  0.02709390  0.13804754     0.12800
H218        H  0.04177264  0.47051202  0.14167701     0.12800
H219        H  0.22984372  0.97970860  0.48541386     0.12800
H220        H  0.20226767  0.42542738  0.48290602     0.12800
H221        H  0.16727375  0.04672744  0.06501160     0.26100
H222        H  0.12626788  0.44206817  0.06023706     0.26100
C223        C  0.09465988  0.38794658  0.25202120     0.80200
N224        N  0.12097315  0.40337325  0.23892984    -0.78200
C225        C  0.13467774  0.42709851  0.25513762     0.82600
N226        N  0.12366468  0.43289963  0.28434463    -0.78100
C227        C  0.09856822  0.41774746  0.29765997     0.82700
N228        N  0.08408553  0.39580011  0.28111486    -0.79800
C229        C  0.39480685  0.08886210  0.21899614     0.80200
N230        N  0.40601251  0.11840971  0.21436502    -0.78200
C231        C  0.43258640  0.12796198  0.22936258     0.82600
N232        N  0.44469185  0.10938678  0.25161356    -0.78100
C233        C  0.43346880  0.08024950  0.25597931     0.82700
N234        N  0.40986244  0.07001227  0.23842781    -0.79800
C235        C  0.10045672  0.13602036  0.24474423     0.80200
N236        N  0.12792716  0.12492328  0.23205124    -0.78200
C237        C  0.13973569  0.09860556  0.24516767     0.82600
N238        N  0.12488601  0.08520152  0.27081284    -0.78100
C239        C  0.09867042  0.09652754  0.28351715     0.82700
N240        N  0.08657561  0.12137660  0.27015608    -0.79800
C241        C  0.38586936  0.42113088  0.24464091     0.80200
N242        N  0.39893724  0.42809815  0.27262083    -0.78200
C243        C  0.42421472  0.41371573  0.28309731     0.82600
N244        N  0.43628298  0.39170967  0.26607928    -0.78100
C245        C  0.42311559  0.38187766  0.23956514     0.82700
N246        N  0.39703206  0.39641809  0.22839136    -0.79800
N247        N  0.44667610  0.48133963  0.41099468    -0.36700
N248        N  0.00584030  0.41971913  0.41487379    -0.57200
N249        N  0.05708026  0.48987693  0.40133810    -0.36700
N250        N  0.98029593  0.02503142  0.40020676    -0.57200
C251        C  0.43101410  0.45414709  0.41539804     0.26900
C252        C  0.43092840  0.00687372  0.39543504     0.26900
C253        C  0.06052039  0.47147481  0.42679363     0.26900
C254        C  0.04613404  0.01652003  0.41240892     0.26900
C255        C  0.47415212  0.42386946  0.43058635     0.35500
C256        C  0.02794476  0.42778625  0.43555146     0.35500
C257        C  0.47086506  0.04978506  0.38532107     0.35500
C258        C  0.00369206  0.04434760  0.38896691     0.35500
C259        C  0.39954223  0.45744234  0.40943275    -0.22000
C260        C  0.40103224  0.99399355  0.39196781    -0.22000
C261        C  0.06393467  0.48878182  0.45335819    -0.22000
C262        C  0.07183725  0.01868342  0.43162172    -0.22000
C263        C  0.47663411  0.43369392  0.46110803    -0.23000
C264        C  0.01335617  0.43583124  0.46365074    -0.23000
C265        C  0.48202122  0.07543831  0.36789478    -0.23000
C266        C  0.99191168  0.06711784  0.37028203    -0.23000
C267        C  0.44697834  0.42679661  0.41285093    -0.18400
C268        C  0.44186463  0.03419186  0.37984111    -0.18400
C269        C  0.03585122  0.03953254  0.39217231    -0.18400
C270        C  0.05782406  0.43938697  0.42484274    -0.18400
H271        H  0.38120943  0.43982584  0.40948566     0.14500
H272        H  0.38155346  0.00432646  0.38047395     0.14500
H273        H  0.06747007  0.48066976  0.47717771     0.14500
H274        H  0.08689758  0.03861475  0.43530813     0.14500
H275        H  0.45776948  0.44091525  0.47644658     0.12800
H276        H  0.02425198  0.44600347  0.48371228     0.12800
H277        H  0.46927525  0.08974283  0.35206266     0.12800
H278        H  0.00460827  0.08495481  0.35665782     0.12800
H279        H  0.47103425  0.48389916  0.41056938     0.26100
H280        H  0.05248665  0.48290393  0.37859500     0.26100
C281        C  0.16284651  0.44643811  0.24494265     0.42400
N282        N  0.19646346  0.48437838  0.25069929     0.01300
C283        C  0.29047008  0.06473015  0.14434049    -0.06600
H284        H  0.30102882  0.43933011  0.13969144     0.06800
C285        C  0.34194048  0.45632620  0.26210396    -0.06900
Co286      Co  0.22194760  0.01067708  0.19535909     0.74200
N287        N  0.27461695  0.47224885  0.16636209    -0.26100
Co288      Co  0.30445397  0.00545656  0.18937078     0.74100
C289        C  0.35668521  0.43851815  0.23754610     0.42500
N290        N  0.27655063  0.48318528  0.29940885     0.00900
N291        N  0.32737639  0.47332223  0.21680712     0.01000
N292        N  0.23899731  0.06547028  0.15489653    -0.47000
H293        H  0.16757251  0.45126462  0.19085561     0.06800
N294        N  0.24395618  0.47540281  0.16990514     0.01300
N295        N  0.33148838  0.03972694  0.21038159     0.01000
C296        C  0.36137984  0.08009373  0.21715415     0.42600
N297        N  0.24579361  0.48530033  0.29844589    -0.25600
C298        C  0.17980801  0.06863436  0.20874459    -0.06500
N299        N  0.17765765  0.46416128  0.26608571    -0.46700
N300        N  0.35109014  0.05997385  0.19566524    -0.46900
C301        C  0.17079912  0.08561496  0.23710625     0.42400
N302        N  0.25049557  0.04143685  0.16835531     0.01300
N303        N  0.25259292  0.05012550  0.29661000    -0.25600
N304        N  0.19513407  0.48150394  0.22005192    -0.26100
N305        N  0.28343455  0.04920436  0.29638808     0.00900
H306        H  0.21969327  0.07630072  0.32300154     0.06800
H307        H  0.34959175  0.07815685  0.27038243     0.06800
N308        N  0.28112867  0.04013746  0.16354087    -0.26100
N309        N  0.32524184  0.47730717  0.24759891    -0.25800
N310        N  0.20292363  0.04969894  0.24884191     0.01300
C311        C  0.24636386  0.43571905  0.14054333     0.42700
C312        C  0.23224470  0.46439900  0.31817574    -0.07000
N313        N  0.32916900  0.04408038  0.24097401    -0.25800
H314        H  0.34571061  0.45540435  0.28717126     0.06800
N315        N  0.22712103  0.45463248  0.15533722    -0.47000
H316        H  0.20728440  0.46146937  0.32296342     0.06800
C317        C  0.27266304  0.08530807  0.32939358     0.42500
C318        C  0.17426780  0.45833564  0.21393102    -0.06500
Co319      Co  0.22482098  0.01624061  0.27514226     0.73800
N320        N  0.28503090  0.46204277  0.32042382    -0.46700
C321        C  0.26157787  0.08214059  0.13875976     0.42800
N322        N  0.18618931  0.07173692  0.26063566    -0.46700
Co323      Co  0.30403235  0.51402313  0.27015492     0.73900
C324        C  0.34570709  0.06966912  0.24704525    -0.07000
C325        C  0.27864563  0.44749031  0.14779056    -0.06600
N326        N  0.19994639  0.04719525  0.21831013    -0.26100
N327        N  0.34704758  0.45100745  0.20970680    -0.46900
H328        H  0.31439316  0.07053086  0.13670049     0.06800
C329        C  0.24376674  0.07210195  0.31618523    -0.07000
Cl330      Cl  0.26427379  0.01105233  0.23295143    -0.50000
C331        C  0.25788926  0.44872268  0.33283002     0.42500
H332        H  0.17087114  0.07089716  0.18533194     0.06800
N333        N  0.29613353  0.06881732  0.31652787    -0.46700
C334        C  0.41047317  0.40207260  0.33832285    -0.05800
C335        C  0.43262440  0.41448094  0.31615079     0.00100
C336        C  0.46346813  0.42171993  0.32552694    -0.08500
C337        C  0.46845512  0.42468551  0.35777385    -0.05900
C338        C  0.44535501  0.41447651  0.38058497     0.00100
C339        C  0.41732051  0.39980010  0.37028315    -0.08400
C340        C  0.39447026  0.38101298  0.39167230     0.62000
H341        H  0.38813690  0.39277449  0.33038619     0.12700
H342        H  0.49013198  0.43576174  0.36484399     0.12700
C343        C  0.49117724  0.42353882  0.30214067     0.62200
F344        F  0.39405660  0.35098379  0.38226352    -0.23000
F345        F  0.36442650  0.39161757  0.38912278    -0.20300
F346        F  0.40269237  0.38149246  0.42290445    -0.20000
F347        F  0.48483435  0.44139455  0.27610318    -0.20000
F348        F  0.49704445  0.39440410  0.29221399    -0.20300
F349        F  0.51818111  0.43538712  0.31546739    -0.23000
C350        C  0.07838904  0.05106131  0.31306811    -0.05800
C351        C  0.08449531  0.08258137  0.31259587     0.00100
C352        C  0.07636414  0.09978200  0.33920462    -0.08500
C353        C  0.06516330  0.08398067  0.36669022    -0.05900
C354        C  0.05738336  0.05257473  0.36672067     0.00100
C355        C  0.06211825  0.03635854  0.33852182    -0.08400
C356        C  0.04693217  0.00501094  0.33371713     0.62000
H357        H  0.08381949  0.03859971  0.29201751     0.12700
H358        H  0.05863861  0.09657449  0.38705831     0.12700
C359        C  0.07723578  0.13452109  0.33783018     0.62200
F360        F  0.01489036  0.00578714  0.33882748    -0.23000
F361        F  0.05233287  0.99478309  0.30355165    -0.20300
F362        F  0.05851971  0.98431601  0.35445319    -0.20000
F363        F  0.05496062  0.14432660  0.31725227    -0.20000
F364        F  0.10677869  0.14585696  0.32806190    -0.20300
F365        F  0.07007233  0.14681220  0.36651859    -0.23000
C366        C  0.41570000  0.07914140  0.31061189    -0.05800
C367        C  0.43413066  0.06595728  0.28723712     0.00100
C368        C  0.44620005  0.03698652  0.29272770    -0.08500
C369        C  0.44352555  0.02419175  0.32336611    -0.05900
C370        C  0.42939522  0.04004019  0.34806690     0.00100
C371        C  0.41268459  0.06622313  0.34093326    -0.08400
C372        C  0.39330348  0.08248461  0.36463024     0.62000
H373        H  0.40372782  0.09998416  0.30518458     0.12700
H374        H  0.45466215  0.00299845  0.32887097     0.12700
C375        C  0.46273405  0.02058936  0.26661877     0.62200
F376        F  0.36244811  0.08250531  0.35525262    -0.23000
F377        F  0.40505568  0.11211587  0.36534370    -0.20300
F378        F  0.39388446  0.06932096  0.39447893    -0.20000
F379        F  0.48855627  0.03814313  0.25550362    -0.20000
F380        F  0.44246098  0.01536406  0.24226801    -0.20300
F381        F  0.47290608  0.99283711  0.27713289    -0.23000
C382        C  0.09822422  0.44576467  0.38122547    -0.05800
C383        C  0.07464402  0.42670198  0.39622191     0.00100
C384        C  0.06571736  0.39960965  0.38057727    -0.08500
C385        C  0.07298867  0.39795764  0.34810437    -0.05900
C386        C  0.09045277  0.42161127  0.33152448     0.00100
C387        C  0.10272618  0.44655933  0.34866817    -0.08400
C388        C  0.11784359  0.47557097  0.33335062     0.62000
H389        H  0.10918735  0.46388081  0.39428658     0.12700
H390        H  0.06564701  0.37753626  0.33594030     0.12700
C391        C  0.05245019  0.37082838  0.39738962     0.62200
F392        F  0.11942908  0.49948789  0.35405732    -0.23000
F393        F  0.10033701  0.48506887  0.30824194    -0.20300
F394        F  0.14811832  0.47038250  0.32323530    -0.20000
F395        F  0.02165380  0.36514932  0.38899689    -0.20000
F396        F  0.05390645  0.37265457  0.42974286    -0.20300
F397        F  0.06993576  0.34628505  0.38859475    -0.23000
C398        C  0.14091265  0.44542505  0.44433710    -0.05800
C399        C  0.13582611  0.41952778  0.46434503     0.00100
C400        C  0.14782050  0.39171629  0.45470885    -0.08500
C401        C  0.17198097  0.39269548  0.43180122    -0.05900
C402        C  0.18416202  0.42071645  0.41882964     0.00100
C403        C  0.16658584  0.44714141  0.42266500    -0.08400
C404        C  0.17682222  0.47759062  0.40742369     0.62000
H405        H  0.12977673  0.46623218  0.45095173     0.12700
H406        H  0.18331964  0.37169307  0.42638388     0.12700
C407        C  0.13798302  0.36118855  0.46982501     0.62200
F408        F  0.15529324  0.49958492  0.41361452    -0.23000
F409        F  0.17919192  0.47501272  0.37524705    -0.20300
F410        F  0.20568023  0.48716492  0.41861453    -0.20000
F411        F  0.11367239  0.36353838  0.49167493    -0.20000
F412        F  0.16338395  0.34891832  0.48440525    -0.18800
F413        F  0.12795970  0.34153290  0.44682216    -0.23000
C414        C  0.19080194  0.04633585  0.45899142    -0.05800
C415        C  0.20406797  0.03866115  0.48777437     0.00100
C416        C  0.23571893  0.04748739  0.49324014    -0.08500
C417        C  0.25368779  0.06223223  0.46854225    -0.05900
C418        C  0.24062680  0.06822485  0.43910475     0.00100
C419        C  0.20844980  0.06091510  0.43443567    -0.08400
C420        C  0.19250009  0.06892520  0.40385326     0.62000
H421        H  0.16631748  0.04053158  0.45565317     0.12700
H422        H  0.27784589  0.06971975  0.47216129     0.12700
C423        C  0.24962039  0.04283377  0.52544585     0.62200
F424        F  0.16028343  0.06319791  0.40592631    -0.23000
F425        F  0.20444236  0.05157263  0.37992602    -0.20300
F426        F  0.19764251  0.09963595  0.39625236    -0.20000
F427        F  0.24945671  0.01208547  0.53350745    -0.20000
F428        F  0.28034090  0.05431507  0.52623277    -0.20300
F429        F  0.23195146  0.05772385  0.54768839    -0.23000
C430        C  0.11359294  0.09282889  0.10001565    -0.05800
C431        C  0.11751931  0.06118047  0.10459105     0.00100
C432        C  0.14459328  0.05179694  0.11986438    -0.08500
C433        C  0.17022941  0.07256935  0.12031166    -0.05900
C434        C  0.16843758  0.10350644  0.11084093     0.00100
C435        C  0.13865273  0.11446586  0.10450529    -0.08400
C436        C  0.13354605  0.14834551  0.10377593     0.62000
H437        H  0.09169376  0.10023558  0.09089856     0.12700
H438        H  0.19251531  0.06361437  0.12566488     0.12700
C439        C  0.14805379  0.01920298  0.13200832     0.62200
F440        F  0.10187635  0.15389978  0.10520504    -0.23000
F441        F  0.14710464  0.16179554  0.07672949    -0.20300
F442        F  0.14703779  0.16156348  0.12964981    -0.20000
F443        F  0.14635774  0.99874410  0.10778196    -0.20000
F444        F  0.12438871  0.01218280  0.15406918    -0.20300
F445        F  0.17642538  0.01560233  0.14658921    -0.23000
C446        C  0.09025351  0.38627943  0.09463827    -0.05800
C447        C  0.08220688  0.41410990  0.10829385     0.00100
C448        C  0.10181438  0.42366138  0.13235419    -0.08500
C449        C  0.13385792  0.41707409  0.13030075    -0.05900
C450        C  0.14527217  0.39557064  0.10893092     0.00100
C451        C  0.12212183  0.37790288  0.09265478    -0.08400
C452        C  0.13060482  0.35266172  0.07078570     0.62000
H453        H  0.07333529  0.37570317  0.07928727     0.12700
H454        H  0.14934399  0.42704353  0.14730743     0.12700
C455        C  0.08799958  0.42931412  0.16445055     0.62200
F456        F  0.10426489  0.33731534  0.05963586    -0.23000
F457        F  0.14819875  0.33145731  0.08632097    -0.20300
F458        F  0.14735139  0.36549690  0.04524054    -0.20000
F459        F  0.05554759  0.42622002  0.16530713    -0.20000
F460        F  0.09754893  0.45784310  0.17462160    -0.20300
F461        F  0.09848428  0.40727003  0.18459860    -0.23000
C462        C  0.37640344  0.13475629  0.42176780    -0.05800
C463        C  0.38705803  0.13022443  0.45236789     0.00100
C464        C  0.38972020  0.15680398  0.47014229    -0.08500
C465        C  0.40166005  0.18345709  0.45470610    -0.05900
C466        C  0.40033282  0.18616116  0.42179821     0.00100
C467        C  0.38196053  0.16348362  0.40608142    -0.08400
C468        C  0.36906230  0.16907928  0.37357013     0.62000
H469        H  0.36611392  0.11556009  0.40982883     0.12700
H470        H  0.40866366  0.20310011  0.46828138     0.12700
C471        C  0.37143708  0.15894778  0.50095481     0.62200
F472        F  0.39314349  0.17035510  0.35106264    -0.23000
F473        F  0.35370981  0.19634216  0.37280154    -0.20300
F474        F  0.34769138  0.14604208  0.36582824    -0.20000
F475        F  0.34063438  0.14891461  0.49691949    -0.20000
F476        F  0.37134201  0.18868919  0.51127085    -0.20300
F477        F  0.38395390  0.14110477  0.52393148    -0.23000
C478        C  0.03386645  0.17333178  0.44107230    -0.05800
C479        C  0.05081166  0.14676777  0.43593484     0.00100
C480        C  0.08410247  0.14976270  0.43055466    -0.08500
C481        C  0.09757444  0.17927046  0.42578797    -0.05900
C482        C  0.07935737  0.20525418  0.42630972     0.00100
C483        C  0.04754419  0.20259631  0.43603702    -0.08400
C484        C  0.02698892  0.22996588  0.43823947     0.62000
H485        H  0.00908601  0.17110252  0.44758454     0.12700
H486        H  0.12225106  0.18180034  0.41875522     0.12700
C487        C  0.10654208  0.12369720  0.42659444     0.62200
F488        F  0.00373460  0.22494257  0.46138568    -0.23000
F489        F  0.01294896  0.23475808  0.40968742    -0.20300
F490        F  0.04439300  0.25600364  0.44576287    -0.20000
F491        F  0.09317163  0.09547072  0.43497221    -0.20000
F492        F  0.13262979  0.12865063  0.44479738    -0.20300
F493        F  0.11726238  0.12295732  0.39569829    -0.23000
C494        C  0.41243312  0.17255378  0.07460779    -0.05800
C495        C  0.39142398  0.17111216  0.10031095     0.00100
C496        C  0.38193944  0.14276729  0.11439813    -0.08500
C497        C  0.39399902  0.11599749  0.10162658    -0.05900
C498        C  0.41587338  0.11750445  0.07611505     0.00100
C499        C  0.42603430  0.14672326  0.06281522    -0.08400
C500        C  0.45018558  0.15346025  0.03602946     0.62000
H501        H  0.41927901  0.19479923  0.06416625     0.12700
H502        H  0.38654383  0.09375025  0.11142807     0.12700
C503        C  0.35918021  0.14121668  0.14230143     0.62200
F504        F  0.47082658  0.17687241  0.04417280    -0.23000
F505        F  0.43528322  0.16324461  0.00961434    -0.20300
F506        F  0.46780441  0.12932618  0.02794798    -0.20000
F507        F  0.33100369  0.15328331  0.13379958    -0.20000
F508        F  0.37155804  0.15784307  0.16662735    -0.20300
F509        F  0.35331295  0.11149500  0.15298843    -0.23000
C510        C  0.08569474  0.16434126  0.03956000    -0.05800
C511        C  0.06738918  0.18313258  0.05833166     0.00100
C512        C  0.03890500  0.17051387  0.07223156    -0.08500
C513        C  0.03029361  0.13984444  0.06642213    -0.05900
C514        C  0.04988847  0.12000122  0.04975414     0.00100
C515        C  0.07875290  0.13313325  0.03631701    -0.08400
C516        C  0.10374663  0.11662136  0.01780451     0.62000
H517        H  0.10734651  0.17360499  0.02848489     0.12700
H518        H  0.00725899  0.13179480  0.07444377     0.12700
C519        C  0.01723808  0.18872438  0.09311478     0.62200
F520        F  0.13238900  0.12019888  0.03208018    -0.23000
F521        F  0.10672702  0.12914956  0.98767167    -0.20300
F522        F  0.09746836  0.08603156  0.01557276    -0.20000
F523        F  0.01150015  0.21651745  0.07870463    -0.20000
F524        F  0.03094222  0.19337187  0.12179972    -0.20300
F525        F  0.98844442  0.17363166  0.09920787    -0.23000
C526        C  0.24884908  0.16327812  0.54871069     0.42400
N527        N  0.24291435  0.19677662  0.51094642     0.01300
C528        C  0.34847419  0.29956001  0.93397912    -0.06600
H529        H  0.34542026  0.31064590  0.56031893     0.06800
C530        C  0.22145424  0.34066771  0.53457609    -0.06900
Co531      Co  0.30044300  0.22791406  0.98362413     0.74200
N532        N  0.32151203  0.28178967  0.52656690    -0.26100
Co533      Co  0.30163780  0.30935702  0.49072014     0.74100
C534        C  0.24289982  0.35589510  0.55557536     0.42500
N535        N  0.19263160  0.27433163  0.50670500     0.00900
N536        N  0.26887828  0.32938001  0.52193027     0.01000
N537        N  0.33922417  0.24972062  0.92678529    -0.47000
H538        H  0.30262687  0.17367037  0.54788060     0.06800
N539        N  0.32010888  0.25171794  0.52354041     0.01300
N540        N  0.27656865  0.33257712  0.95265256     0.01000
C541        C  0.26777457  0.36015162  0.91049940     0.42600
N542        N  0.19405567  0.24428483  0.50583756    -0.25600
C543        C  0.29630603  0.18529991  0.92464731    -0.06500
N544        N  0.22759724  0.17653604  0.53009332    -0.46700
N545        N  0.28929636  0.35388926  0.93269799    -0.46900
C546        C  0.27118068  0.17064862  0.90633239     0.42400
N547        N  0.32387072  0.25853071  0.95191760     0.01300
N548        N  0.19992718  0.24513641  0.93900388    -0.25600
N549        N  0.27345034  0.19833688  0.51555464    -0.26100
N550        N  0.19782120  0.27502218  0.93983836     0.00900
H551        H  0.17438790  0.21049959  0.91420116     0.06800
H552        H  0.21737698  0.33929898  0.90921266     0.06800
N553        N  0.32733809  0.28816473  0.95605641    -0.26100
N554        N  0.23904161  0.32545031  0.51463706    -0.25800
N555        N  0.25176580  0.20099519  0.94137159     0.01300
C556        C  0.34784233  0.25792983  0.56531538     0.42700
C557        C  0.17311165  0.23188957  0.52677826    -0.07000
N558        N  0.24710151  0.32549498  0.94626744    -0.25800
H559        H  0.19637163  0.34158463  0.53362804     0.06800
N560        N  0.33498031  0.23736403  0.54584275    -0.47000
H561        H  0.16807048  0.20766351  0.53062839     0.06800
C562        C  0.16396680  0.26093701  0.90510829     0.42500
C563        C  0.27959404  0.17803077  0.53905526    -0.06500
Co564      Co  0.22162617  0.22031231  0.97440292     0.73800
N565        N  0.17092685  0.28340604  0.52713228    -0.46700
C566        C  0.35680426  0.27355575  0.91417869     0.42800
N567        N  0.24425960  0.18137712  0.91914919    -0.46700
Co568      Co  0.22159627  0.30158269  0.47629317     0.73900
C569        C  0.24038617  0.33978921  0.91938271    -0.07000
C570        C  0.33889745  0.28805307  0.55238025    -0.06600
N571        N  0.28220230  0.20345726  0.94544009    -0.26100
N572        N  0.27249562  0.34805603  0.54634670    -0.46900
H573        H  0.35593046  0.32336499  0.93095562     0.06800
C574        C  0.18034093  0.23446310  0.91734024    -0.07000
Cl575      Cl  0.26222059  0.26544563  0.48234731    -0.50000
C576        C  0.15811304  0.25772906  0.54120069     0.42500
H577        H  0.32099518  0.18063820  0.92431713     0.06800
N578        N  0.17596552  0.28512283  0.92083564    -0.46700
C579        C  0.12731196  0.25489792  0.55749162     0.80200
N580        N  0.12002813  0.27083773  0.58383481    -0.78200
C581        C  0.09258023  0.26345340  0.60017536     0.82600
N582        N  0.07420558  0.23941158  0.59088414    -0.78100
C583        C  0.08193663  0.22264637  0.56593016     0.82700
N584        N  0.10848678  0.23094081  0.54931119    -0.79800
C585        C  0.36819789  0.24610411  0.59083320     0.80200
N586        N  0.36679286  0.21510316  0.59309583    -0.78200
C587        C  0.38613101  0.19943332  0.61123078     0.82600
N588        N  0.40730218  0.21501625  0.62786096    -0.78100
C589        C  0.41066123  0.24583078  0.62627688     0.82700
N590        N  0.39131130  0.26216570  0.60682373    -0.79800
C591        C  0.08736911  0.25962746  0.86383031     0.80200
N592        N  0.11804183  0.26719654  0.87027807    -0.78200
C593        C  0.13009788  0.25775192  0.89828070     0.82600
N594        N  0.11194607  0.23975072  0.91850156    -0.78100
C595        C  0.08178964  0.23182019  0.91208713     0.82700
N596        N  0.07000726  0.24151057  0.88454560    -0.79800
C597        C  0.41761343  0.24638737  0.86052855     0.80200
N598        N  0.42044375  0.21948201  0.87653036    -0.78200
C599        C  0.40936539  0.21617752  0.90645066     0.82600
N600        N  0.39702782  0.24016232  0.92051741    -0.78100
C601        C  0.38852914  0.26488080  0.90373349     0.82700
N602        N  0.39916902  0.26838021  0.87308341    -0.79800
N603        N  0.46263659  0.10218361  0.95038294    -0.36700
N604        N  0.43090320  0.08816093  0.50846789    -0.57200
N605        N  0.48562560  0.07389922  0.55312840    -0.36700
N606        N  0.04315726  0.11170069  0.49120513    -0.57200
C607        C  0.43463679  0.10949290  0.93874415     0.26900
C608        C  0.98911226  0.11164740  0.92820440     0.26900
C609        C  0.46220397  0.07837071  0.57407503     0.26900
C610        C  0.00050691  0.08920355  0.55565126     0.26900
C611        C  0.40174541  0.09038103  0.98518278     0.35500
C612        C  0.41791678  0.07906569  0.53654477     0.35500
C613        C  0.02984188  0.09469603  0.96109286     0.35500
C614        C  0.03763292  0.09014199  0.51362533     0.35500
C615        C  0.44051796  0.12450191  0.90970453    -0.22000
C616        C  0.97660181  0.12858810  0.90448969    -0.22000
C617        C  0.47477915  0.08355995  0.60336131    -0.22000
C618        C  0.98963545  0.08796956  0.58657740    -0.22000
C619        C  0.37334143  0.08215839  0.00029327    -0.23000
C620        C  0.38564947  0.07520854  0.53343025    -0.23000
C621        C  0.02356568  0.06342648  0.96407652    -0.23000
C622        C  0.02860179  0.06252008  0.50053916    -0.23000
C623        C  0.40502921  0.10647056  0.95582172    -0.18400
C624        C  0.02057109  0.11434732  0.93729896    -0.18400
C625        C  0.03108912  0.09868235  0.54447999    -0.18400
C626        C  0.43190023  0.08687177  0.56519660    -0.18400
H627        H  0.42431099  0.13096399  0.89212678     0.14500
H628        H  0.98918481  0.14296184  0.88690301     0.14500
H629        H  0.46206102  0.08993442  0.62443927     0.14500
H630        H  0.00355238  0.09021757  0.60739596     0.14500
H631        H  0.35015889  0.08339156  0.99059259     0.12800
H632        H  0.36829870  0.07137427  0.55233127     0.12800
H633        H  0.01299638  0.04861155  0.94711788     0.12800
H634        H  0.01991138  0.04191104  0.51297121     0.12800
H635        H  0.46681046  0.09179891  0.97191101     0.26100
H636        H  0.48223514  0.07285611  0.52906609     0.26100
C637        C  0.08758827  0.16718565  0.73557773     0.42400
N638        N  0.05051602  0.19920797  0.74572313     0.01300
C639        C  0.45329815  0.28658081  0.65187837    -0.06600
H640        H  0.06899259  0.32067276  0.63424203     0.06800
C641        C  0.05771171  0.34173462  0.77028182    -0.06900
Co642      Co  0.51732826  0.22607129  0.69227715     0.74200
N643        N  0.05006502  0.28672647  0.66817040    -0.26100
Co644      Co  0.51131891  0.30679307  0.69396472     0.74100
C645        C  0.07562329  0.36107388  0.74759761     0.42500
N646        N  0.03773594  0.27348186  0.80027683     0.00900
N647        N  0.04261996  0.33119506  0.72358317     0.01000
N648        N  0.46008814  0.23596959  0.65228377    -0.47000
H649        H  0.08264293  0.17625340  0.68204833     0.06800
N650        N  0.05448113  0.25710623  0.67104276     0.01300
N651        N  0.47311962  0.32584874  0.71832197     0.01000
C652        C  0.43197622  0.35167851  0.73161310     0.42600
N653        N  0.04129458  0.24398599  0.79687616    -0.25600
C654        C  0.46098059  0.17630379  0.70237111    -0.06500
N655        N  0.06946023  0.17928946  0.75850413    -0.46700
N656        N  0.45262704  0.34573764  0.70767717    -0.46900
C657        C  0.44522138  0.16145269  0.73029190     0.42400
N658        N  0.48285846  0.24994738  0.66746575     0.01300
N659        N  0.47271109  0.23894717  0.79597121    -0.25600
N660        N  0.05380648  0.20118694  0.71482144    -0.26100
N661        N  0.46919686  0.26865338  0.79707274     0.00900
H662        H  0.44957463  0.20077853  0.82089220     0.06800
H663        H  0.43499017  0.33365597  0.78277850     0.06800
N664        N  0.47966104  0.27987982  0.66778451    -0.26100
N665        N  0.03783877  0.32495477  0.75392600    -0.25800
N666        N  0.47995386  0.19502793  0.74474626     0.01300
C667        C  0.08726587  0.27169565  0.63325983     0.42700
C668        C  0.06427125  0.23504461  0.81539148    -0.07000
N669        N  0.46880054  0.31943477  0.74858278    -0.25800
H670        H  0.05801082  0.34185195  0.79570418     0.06800
N671        N  0.07685045  0.24802840  0.65197201    -0.47000
H672        H  0.07116080  0.21170398  0.81876961     0.06800
C673        C  0.43362371  0.24961953  0.82943435     0.42500
C674        C  0.07660575  0.18176594  0.70607543    -0.06500
Co675      Co  0.51078613  0.22002194  0.77223094     0.73800
N676        N  0.05668446  0.28507874  0.82180390    -0.46700
C677        C  0.44019224  0.25692511  0.64148106     0.42800
N678        N  0.45888030  0.17409767  0.75539955    -0.46700
Co679      Co  0.50299792  0.29793868  0.77558352     0.73900
C680        C  0.44274810  0.33287064  0.75836428    -0.07000
C681        C  0.06942840  0.29784242  0.64446992    -0.06600
N682        N  0.48205385  0.19680699  0.71377437    -0.26100
N683        N  0.06462136  0.35380120  0.71859687    -0.46900
H684        H  0.44379537  0.30901073  0.64928406     0.06800
C685        C  0.45100310  0.22501144  0.81519886    -0.07000
Cl686      Cl  0.51075400  0.26265286  0.73351788    -0.50000
C687        C  0.07509809  0.26230764  0.83176960     0.42500
H688        H  0.45833015  0.17113737  0.67780408     0.06800
N689        N  0.44668526  0.27611663  0.81739570    -0.46700
C690        C  0.23087036  0.37655214  0.58056164     0.80200
N691        N  0.19875649  0.37685293  0.58347436    -0.78200
C692        C  0.18403541  0.39449545  0.60442199     0.82600
N693        N  0.20214579  0.41234341  0.62236384    -0.78100
C694        C  0.23396463  0.41350831  0.62046224     0.82700
N695        N  0.24908082  0.39540754  0.59912881    -0.79800
C696        C  0.23931004  0.14171497  0.57583445     0.80200
N697        N  0.26033748  0.12463230  0.59262161    -0.78200
C698        C  0.24966331  0.10952270  0.61993234     0.82600
N699        N  0.21951176  0.11290779  0.62946875    -0.78100
C700        C  0.19765968  0.12279328  0.60999626     0.82700
N701        N  0.20771511  0.13785762  0.58300500    -0.79800
C702        C  0.27183515  0.13816506  0.89694732     0.80200
N703        N  0.27528363  0.12879499  0.86637240    -0.78200
C704        C  0.27219264  0.09813228  0.85985950     0.82600
N705        N  0.26390974  0.07789214  0.88366019    -0.78100
C706        C  0.26003321  0.08732726  0.91364607     0.82700
N707        N  0.26409370  0.11722277  0.91993826    -0.79800
C708        C  0.25311766  0.43080560  0.86221587     0.80200
N709        N  0.26985458  0.40646950  0.87303066    -0.78200
C710        C  0.26003973  0.39178884  0.90090204     0.82600
N711        N  0.23386583  0.40091957  0.91590131    -0.78100
C712        C  0.21589925  0.42236156  0.90367540     0.82700
N713        N  0.22572290  0.43727601  0.87714765    -0.79800
N714        N  0.14871677  0.04050957  0.54945625    -0.36700
N715        N  0.07992873  0.48865618  0.57889698    -0.57200
N716        N  0.10688004  0.43488428  0.54658867    -0.36700
N717        N  0.15984673  0.47372370  0.02051782    -0.57200
C718        C  0.11720640  0.03794624  0.55430017     0.26900
C719        C  0.15779775  0.03266259  0.01916935     0.26900
C720        C  0.07707351  0.43140367  0.55734673     0.26900
C721        C  0.10912387  0.42921797  0.01529397     0.26900
C722        C  0.08243021  0.01440484  0.59409517     0.35500
C723        C  0.06818192  0.46594992  0.59820033     0.35500
C724        C  0.18952149  0.98946299  0.01299562     0.35500
C725        C  0.16407552  0.44599061  0.00870832     0.35500
C726        C  0.10313052  0.02829478  0.52699714    -0.22000
C727        C  0.13054060  0.02418444  0.00404453    -0.22000
C728        C  0.05808834  0.41998475  0.53415459    -0.22000
C729        C  0.07915209  0.42176831  0.00506510    -0.22000
C730        C  0.06616952  0.00965432  0.62247558    -0.23000
C731        C  0.06141288  0.47784921  0.62746330    -0.23000
C732        C  0.21177257  0.97239619  0.99784339    -0.23000
C733        C  0.19415433  0.44535208  0.99516065    -0.23000
C734        C  0.10169538  0.03995887  0.58398747    -0.18400
C735        C  0.18736952  0.02157503  0.01117644    -0.18400
C736        C  0.13757879  0.42927467  0.99781520    -0.18400
C737        C  0.06952328  0.43487250  0.58936747    -0.18400
H738        H  0.07844179  0.02279457  0.52377395     0.14500
H739        H  0.12920814  0.01396125  0.98140078     0.14500
H740        H  0.03329023  0.41365958  0.53631781     0.14500
H741        H  0.07298327  0.41399237  0.98206382     0.14500
H742        H  0.06195842  0.02638118  0.64028263     0.12800
H743        H  0.05120397  0.46597815  0.64792767     0.12800
H744        H  0.23311419  0.98077580  0.98560661     0.12800
H745        H  0.20351450  0.42724203  0.98127471     0.12800
H746        H  0.16634617  0.04431024  0.56616684     0.26100
H747        H  0.12591262  0.44192989  0.56006243     0.26100
C748        C  0.09284992  0.38891741  0.75925725     0.80200
N749        N  0.11736879  0.40543449  0.74412249    -0.78200
C750        C  0.13324518  0.42783356  0.76045205     0.82600
N751        N  0.12508775  0.43212530  0.79096969    -0.78100
C752        C  0.10122036  0.41634941  0.80588343     0.82700
N753        N  0.08539888  0.39504910  0.78970079    -0.79800
C754        C  0.39270496  0.09208043  0.71968384     0.80200
N755        N  0.40476362  0.12146603  0.71584353    -0.78200
C756        C  0.43020939  0.13051467  0.73298537     0.82600
N757        N  0.43993115  0.11183608  0.75648989    -0.78100
C758        C  0.42799510  0.08286080  0.75970406     0.82700
N759        N  0.40601010  0.07297412  0.74014848    -0.79800
C760        C  0.10257266  0.13673031  0.74147129     0.80200
N761        N  0.13006085  0.12722428  0.72695839    -0.78200
C762        C  0.14186962  0.09930199  0.73596452     0.82600
N763        N  0.12672250  0.08241084  0.75885998    -0.78100
C764        C  0.10133255  0.09211826  0.77409210     0.82700
N765        N  0.08941783  0.11925709  0.76572568    -0.79800
C766        C  0.38626663  0.42346009  0.74408271     0.80200
N767        N  0.40080676  0.43154049  0.77092314    -0.78200
C768        C  0.42608363  0.41702686  0.78118096     0.82600
N769        N  0.43684128  0.39378897  0.76491981    -0.78100
C770        C  0.42244085  0.38326250  0.73927019     0.82700
N771        N  0.39618838  0.39782533  0.72860449    -0.79800
N772        N  0.44823735  0.48415189  0.90760977    -0.36700
N773        N  0.00075351  0.42163105  0.91877309    -0.57200
N774        N  0.03968146  0.49189942  0.91116022    -0.36700
N775        N  0.99456390  0.03225524  0.89120722    -0.57200
C776        C  0.43166667  0.45757612  0.91290075     0.26900
C777        C  0.42483756  0.00071077  0.89419970     0.26900
C778        C  0.05366531  0.47443048  0.93254900     0.26900
C779        C  0.05679881  0.01730018  0.90961727     0.26900
C780        C  0.47321585  0.42632260  0.92981967     0.35500
C781        C  0.02160796  0.43121622  0.93998760     0.35500
C782        C  0.46293007  0.04518744  0.88324918     0.35500
C783        C  0.02053989  0.04949417  0.88291906     0.35500
C784        C  0.40036211  0.46160867  0.90661820    -0.22000
C785        C  0.39619753  0.98567600  0.88962724    -0.22000
C786        C  0.07551625  0.49162135  0.94850034    -0.22000
C787        C  0.08060259  0.01790669  0.93119045    -0.22000
C788        C  0.47519199  0.43650115  0.96026957    -0.23000
C789        C  0.00584430  0.44112586  0.96672922    -0.23000
C790        C  0.47272982  0.07100018  0.86530727    -0.23000
C791        C  0.01323247  0.07359342  0.86330805    -0.23000
C792        C  0.44675008  0.42971582  0.91123094    -0.18400
C793        C  0.43424748  0.02850567  0.87856320    -0.18400
C794        C  0.05113081  0.03967533  0.88685874    -0.18400
C795        C  0.05182524  0.44253603  0.93066082    -0.18400
H796        H  0.38154921  0.44444773  0.90712146     0.14500
H797        H  0.37669077  0.99389171  0.87657489     0.14500
H798        H  0.08953957  0.48335172  0.96732479     0.14500
H799        H  0.09758894  0.03638500  0.93493909     0.14500
H800        H  0.45616001  0.44431333  0.97502880     0.12800
H801        H  0.01613462  0.45317634  0.98610872     0.12800
H802        H  0.45898489  0.08483827  0.84997805     0.12800
H803        H  0.02934283  0.09030993  0.85179731     0.12800
H804        H  0.47259391  0.48603606  0.90710183     0.26100
H805        H  0.02319115  0.48425323  0.89505435     0.26100
C806        C  0.16035209  0.44800422  0.74860413     0.42400
N807        N  0.19530373  0.48501375  0.75298788     0.01300
C808        C  0.29093576  0.06475249  0.64170032    -0.06600
H809        H  0.30254890  0.44261315  0.64046767     0.06800
C810        C  0.34234245  0.45809205  0.76294437    -0.06900
Co811      Co  0.22320819  0.00963102  0.69193766     0.74200
N812        N  0.27475110  0.47352267  0.66829109    -0.26100
Co813      Co  0.30574938  0.00600066  0.68728603     0.74100
C814        C  0.35665406  0.44039443  0.73797037     0.42500
N815        N  0.27673549  0.48425886  0.80048978     0.00900
N816        N  0.32719326  0.47543670  0.71807091     0.01000
N817        N  0.23895679  0.06227199  0.64897065    -0.47000
H818        H  0.16525621  0.45089671  0.69428279     0.06800
N819        N  0.24397402  0.47556389  0.67210318     0.01300
N820        N  0.33176089  0.04147311  0.70835403     0.01000
C821        C  0.35942904  0.08345930  0.71551669     0.42600
N822        N  0.24591603  0.48572653  0.79927779    -0.25600
C823        C  0.18261935  0.06901865  0.70219802    -0.06500
N824        N  0.17575449  0.46599707  0.76901294    -0.46700
N825        N  0.35082833  0.06247771  0.69402684    -0.46900
C826        C  0.17403325  0.08822294  0.72898615     0.42400
N827        N  0.25121417  0.03931875  0.66358918     0.01300
N828        N  0.25212464  0.05177670  0.79349902    -0.25600
N829        N  0.19400320  0.48126675  0.72244099    -0.26100
N830        N  0.28290742  0.05082366  0.79367415     0.00900
H831        H  0.21888626  0.07721837  0.82029963     0.06800
H832        H  0.34494832  0.08213135  0.76809578     0.06800
N833        N  0.28208208  0.03963597  0.66037381    -0.26100
N834        N  0.32546076  0.47924502  0.74886949    -0.25800
N835        N  0.20422800  0.05114327  0.74357199     0.01300
C836        C  0.24807161  0.43684857  0.64162122     0.42700
C837        C  0.23284186  0.46327278  0.81732699    -0.07000
N838        N  0.32825280  0.04625429  0.73875717    -0.25800
H839        H  0.34637960  0.45682801  0.78795350     0.06800
N840        N  0.22797362  0.45459144  0.65700842    -0.47000
H841        H  0.20796789  0.45917760  0.82140254     0.06800
C842        C  0.27178669  0.08641098  0.82703869     0.42500
C843        C  0.17237491  0.45840405  0.71710952    -0.06500
Co844      Co  0.22499455  0.01782019  0.77175267     0.73800
N845        N  0.28554037  0.46235361  0.82049336    -0.46700
C846        C  0.26127607  0.08020887  0.63416278     0.42800
N847        N  0.18877804  0.07490756  0.75351939    -0.46700
Co848      Co  0.30374507  0.51563728  0.77158443     0.73900
C849        C  0.34263776  0.07298519  0.74480777    -0.07000
C850        C  0.27983198  0.44950888  0.64906371    -0.06600
N851        N  0.20146618  0.04717379  0.71322573    -0.26100
N852        N  0.34664034  0.45313490  0.71045722    -0.46900
H853        H  0.31485379  0.07205982  0.63554736     0.06800
C854        C  0.24301856  0.07337225  0.81341537    -0.07000
Cl855      Cl  0.26494174  0.01177321  0.73014499    -0.50000
C856        C  0.25865546  0.44755046  0.83162728     0.42500
H857        H  0.17438167  0.07063102  0.67862375     0.06800
N858        N  0.29537193  0.07013165  0.81419955    -0.46700
C859        C  0.41153433  0.40629647  0.83608315    -0.05800
C860        C  0.43429428  0.41814893  0.81424415     0.00100
C861        C  0.46507862  0.42490628  0.82411547    -0.08500
C862        C  0.46964247  0.42743268  0.85653773    -0.05900
C863        C  0.44600691  0.41738435  0.87891129     0.00100
C864        C  0.41803574  0.40324978  0.86799996    -0.08400
C865        C  0.39512225  0.38387744  0.88866892     0.62000
H866        H  0.38912270  0.39748608  0.82783078     0.12700
H867        H  0.49146561  0.43785464  0.86410139     0.12700
C868        C  0.49326018  0.42564810  0.80134838     0.62200
F869        F  0.36551139  0.39573683  0.88803255    -0.23000
F870        F  0.40446896  0.38174739  0.91950927    -0.20300
F871        F  0.39319551  0.35465692  0.87698395    -0.20000
F872        F  0.50004877  0.39596660  0.79413409    -0.20000
F873        F  0.51956606  0.43920521  0.81433927    -0.20300
F874        F  0.48731032  0.44122598  0.77370787    -0.23000
C875        C  0.07163666  0.05019240  0.80170533    -0.05800
C876        C  0.09181855  0.07583656  0.80339327     0.00100
C877        C  0.10722138  0.08195951  0.83180055    -0.08500
C878        C  0.09733516  0.06530721  0.85928747    -0.05900
C879        C  0.07251579  0.04359750  0.85859920     0.00100
C880        C  0.06274507  0.03298004  0.82886678    -0.08400
C881        C  0.04275626  0.00401045  0.82542070     0.62000
H882        H  0.06270411  0.04382117  0.77903389     0.12700
H883        H  0.10706595  0.07076367  0.88174691     0.12700
C884        C  0.13337447  0.10643746  0.83284970     0.62200
F885        F  0.01151475  0.00958137  0.83047658    -0.23000
F886        F  0.04669399  0.99246935  0.79559813    -0.20300
F887        F  0.05143093  0.98186138  0.84652665    -0.20000
F888        F  0.12235223  0.13434184  0.82321766    -0.20000
F889        F  0.15814901  0.09896227  0.81323315    -0.20300
F890        F  0.14478091  0.10940006  0.86269493    -0.23000
C891        C  0.40663991  0.07601712  0.81323215    -0.05800
C892        C  0.42788500  0.06654698  0.78991033     0.00100
C893        C  0.44162882  0.03804473  0.79306245    -0.08500
C894        C  0.43735430  0.02177038  0.82177601    -0.05900
C895        C  0.42076742  0.03420950  0.84716837     0.00100
C896        C  0.40206570  0.05940951  0.84171517    -0.08400
C897        C  0.37721127  0.06782546  0.86555169     0.62000
H898        H  0.39332217  0.09616758  0.80868196     0.12700
H899        H  0.44950239  0.00084580  0.82577321     0.12700
C900        C  0.46160235  0.02593768  0.76652363     0.62200
F901        F  0.36234227  0.09378144  0.85601898    -0.23000
F902        F  0.39049341  0.07269946  0.89433867    -0.20300
F903        F  0.35467715  0.04432270  0.86882918    -0.20000
F904        F  0.48607999  0.04671478  0.75884001    -0.20000
F905        F  0.44357771  0.02127165  0.74036340    -0.20300
F906        F  0.47415747  0.99857029  0.77487370    -0.23000
C907        C  0.09325962  0.45023801  0.88750682    -0.05800
C908        C  0.07020354  0.43030101  0.90252922     0.00100
C909        C  0.06416558  0.40181242  0.88794045    -0.08500
C910        C  0.07448417  0.39846187  0.85641708    -0.05900
C911        C  0.09298842  0.42123781  0.83976105     0.00100
C912        C  0.10333656  0.44743587  0.85616698    -0.08400
C913        C  0.12333062  0.47365623  0.84086086     0.62000
H914        H  0.10211592  0.46983119  0.89971324     0.12700
H915        H  0.06843280  0.37727523  0.84493759     0.12700
C916        C  0.04956354  0.37341491  0.90447755     0.62200
F917        F  0.12737438  0.49818126  0.86050544    -0.23000
F918        F  0.10929250  0.48457453  0.81411302    -0.20300
F919        F  0.15266068  0.46347464  0.83314115    -0.20000
F920        F  0.02053509  0.36644596  0.89202243    -0.20000
F921        F  0.04632455  0.37639560  0.93663495    -0.20300
F922        F  0.06876231  0.34909760  0.89948712    -0.23000
C923        C  0.14453901  0.45074639  0.94479608    -0.05800
C924        C  0.13769084  0.42415563  0.96345262     0.00100
C925        C  0.14652206  0.39585628  0.95180681    -0.08500
C926        C  0.16900531  0.39616259  0.92732233    -0.05900
C927        C  0.18350458  0.42382766  0.91600746     0.00100
C928        C  0.16893165  0.45147350  0.92193792    -0.08400
C929        C  0.18235649  0.48209575  0.90953826     0.62000
H930        H  0.13732462  0.47224770  0.95375294     0.12700
H931        H  0.17813787  0.37463882  0.92001532     0.12700
C932        C  0.13569456  0.36524950  0.96624617     0.62200
F933        F  0.16172039  0.50486669  0.91557484    -0.23000
F934        F  0.18740814  0.48194609  0.87744032    -0.20300
F935        F  0.21053795  0.48893437  0.92370002    -0.20000
F936        F  0.11387294  0.36795705  0.99048258    -0.20000
F937        F  0.16128166  0.35037847  0.97762640    -0.18800
F938        F  0.12199177  0.34765716  0.94334008    -0.23000
C939        C  0.19326882  0.04638069  0.95851503    -0.05800
C940        C  0.20704712  0.03918338  0.98717721     0.00100
C941        C  0.23876552  0.04833656  0.99191256    -0.08500
C942        C  0.25629894  0.06250668  0.96658997    -0.05900
C943        C  0.24266891  0.06796311  0.93734167     0.00100
C944        C  0.21037080  0.06075819  0.93350326    -0.08400
C945        C  0.19360363  0.06904626  0.90347946     0.62000
H946        H  0.16875352  0.04056675  0.95563932     0.12700
H947        H  0.28053564  0.07008886  0.96960534     0.12700
C948        C  0.25324666  0.04465957  0.02394193     0.62200
F949        F  0.16141653  0.06366112  0.90661000    -0.23000
F950        F  0.20457213  0.05172777  0.87905409    -0.20300
F951        F  0.19885166  0.09974563  0.89594131    -0.20000
F952        F  0.23459610  0.05804250  0.04649021    -0.20000
F953        F  0.25557472  0.01403831  0.03167841    -0.20300
F954        F  0.28304180  0.05845864  0.02452600    -0.23000
C955        C  0.11194511  0.09279635  0.60399963    -0.05800
C956        C  0.11668683  0.06100780  0.60676685     0.00100
C957        C  0.14462670  0.05169853  0.62016805    -0.08500
C958        C  0.17024633  0.07247851  0.61851843    -0.05900
C959        C  0.16746461  0.10392130  0.61193898     0.00100
C960        C  0.13691418  0.11469203  0.60875493    -0.08400
C961        C  0.13101926  0.14835326  0.61158719     0.62000
H962        H  0.08934127  0.10023339  0.59655873     0.12700
H963        H  0.19298615  0.06326130  0.62035715     0.12700
C964        C  0.14898326  0.01899705  0.63158382     0.62200
F965        F  0.09923077  0.15365627  0.61152553    -0.23000
F966        F  0.14597144  0.16499626  0.58713498    -0.20300
F967        F  0.14261426  0.15849900  0.63974838    -0.20000
F968        F  0.14681394  0.99883862  0.60713215    -0.20000
F969        F  0.12613281  0.01122891  0.65431504    -0.20300
F970        F  0.17793106  0.01573808  0.64507507    -0.23000
C971        C  0.09360429  0.38413697  0.59605855    -0.05800
C972        C  0.08474527  0.41138237  0.61042148     0.00100
C973        C  0.10497148  0.42139580  0.63383511    -0.08500
C974        C  0.13725110  0.41753299  0.62944243    -0.05900
C975        C  0.14874502  0.39637651  0.60781886     0.00100
C976        C  0.12587185  0.37747479  0.59259185    -0.08400
C977        C  0.13492391  0.35278771  0.57034363     0.62000
H978        H  0.07658900  0.37281614  0.58134814     0.12700
H979        H  0.15292413  0.42848039  0.64571801     0.12700
C980        C  0.09311668  0.42308767  0.66731369     0.62200
F981        F  0.10899115  0.33617578  0.56006410    -0.23000
F982        F  0.15425321  0.33256336  0.58505808    -0.20300
F983        F  0.15012010  0.36655194  0.54439333    -0.20000
F984        F  0.06089558  0.41769358  0.66997567    -0.20000
F985        F  0.10119453  0.45125241  0.67943037    -0.20300
F986        F  0.10700031  0.40047791  0.68457531    -0.23000
C987        C  0.37181934  0.13637122  0.91952210    -0.05800
C988        C  0.38164450  0.13082472  0.95022885     0.00100
C989        C  0.38614597  0.15719917  0.96808957    -0.08500
C990        C  0.40090567  0.18275462  0.95297221    -0.05900
C991        C  0.39967637  0.18606386  0.92017548     0.00100
C992        C  0.38013157  0.16464381  0.90400484    -0.08400
C993        C  0.36901824  0.17077015  0.87092002     0.62000
H994        H  0.36119476  0.11780801  0.90692716     0.12700
H995        H  0.40908650  0.20190600  0.96667565     0.12700
C996        C  0.36664634  0.16159864  0.99781394     0.62200
F997        F  0.39380203  0.16860874  0.84950603    -0.23000
F998        F  0.35696546  0.19959050  0.86860109    -0.20300
F999        F  0.34534706  0.15004373  0.86310667    -0.20000
F1000       F  0.37099521  0.19086357  0.00898935    -0.20000
F1001       F  0.37423462  0.14135494  0.02126378    -0.20300
F1002       F  0.33520589  0.15696609  0.99129388    -0.23000
C1003       C  0.02105002  0.17172738  0.94120548    -0.05800
C1004       C  0.03757333  0.14516920  0.93437141     0.00100
C1005       C  0.07034507  0.14838143  0.92740694    -0.08500
C1006       C  0.08457018  0.17775944  0.92491401    -0.05900
C1007       C  0.06714595  0.20398916  0.92731130     0.00100
C1008       C  0.03517743  0.20126095  0.93697985    -0.08400
C1009       C  0.01675073  0.22933401  0.94420028     0.62000
H1010       H  0.99673999  0.16922489  0.94928925     0.12700
H1011       H  0.10893375  0.18052476  0.91695607     0.12700
C1012       C  0.08901117  0.12262873  0.91467302     0.62200
F1013       F  0.98599882  0.22167772  0.95357038    -0.23000
F1014       F  0.01598838  0.24856020  0.91802068    -0.20300
F1015       F  0.03100154  0.24484786  0.96829695    -0.20000
F1016       F  0.08474958  0.09586093  0.93216378    -0.20000
F1017       F  0.12097872  0.12983256  0.91398607    -0.20300
F1018       F  0.07921590  0.11831733  0.88444169    -0.23000
C1019       C  0.41880618  0.17126303  0.57640204    -0.05800
C1020       C  0.39576338  0.16982732  0.60031555     0.00100
C1021       C  0.38547295  0.14162636  0.61402316    -0.08500
C1022       C  0.39837552  0.11480285  0.60242268    -0.05900
C1023       C  0.42154707  0.11611765  0.57811251     0.00100
C1024       C  0.43264945  0.14525990  0.56520401    -0.08400
C1025       C  0.45704823  0.15163895  0.53850779     0.62000
H1026       H  0.42639364  0.19349638  0.56642429     0.12700
H1027       H  0.39022550  0.09262719  0.61189729     0.12700
C1028       C  0.36085935  0.14037871  0.64027981     0.62200
F1029       F  0.47819382  0.17450884  0.54686683    -0.23000
F1030       F  0.44244052  0.16192650  0.51197258    -0.20300
F1031       F  0.47413672  0.12714838  0.53040130    -0.20000
F1032       F  0.33311031  0.15145917  0.62930885    -0.20000
F1033       F  0.37099328  0.15800944  0.66489393    -0.20300
F1034       F  0.35504383  0.11090360  0.65151975    -0.23000
C1035       C  0.08477437  0.17109136  0.54423687    -0.05800
C1036       C  0.06714567  0.19146478  0.56174314     0.00100
C1037       C  0.03890025  0.18001028  0.57727157    -0.08500
C1038       C  0.02890428  0.14934796  0.57274088    -0.05900
C1039       C  0.04653356  0.12879041  0.55499710     0.00100
C1040       C  0.07663638  0.13996732  0.54299736    -0.08400
C1041       C  0.10160315  0.12055687  0.52859875     0.62000
H1042       H  0.10687390  0.17889122  0.53297283     0.12700
H1043       H  0.00639156  0.14201397  0.58264959     0.12700
C1044       C  0.01889076  0.19943835  0.59856687     0.62200
F1045       F  0.09510336  0.09018513  0.53425873    -0.23000
F1046       F  0.13064755  0.12750980  0.54088620    -0.20300
F1047       F  0.10378763  0.12622843  0.49672488    -0.20000
F1048       F  0.01236265  0.22660507  0.58328028    -0.20000
F1049       F  0.03468709  0.20525728  0.62585086    -0.20300
F1050       F  0.99043797  0.18492702  0.60742722    -0.23000
C1051       C  0.24825871  0.66471483  0.04988139     0.42400
N1052       N  0.24121815  0.69763600  0.01194841     0.01300
C1053       C  0.35162633  0.79777997  0.43650663    -0.06600
H1054       H  0.34504911  0.81119601  0.05888089     0.06800
C1055       C  0.21936699  0.84182995  0.03407906    -0.06900
Co1056     Co  0.30160916  0.72646427  0.48543271     0.74200
N1057       N  0.32009940  0.78232421  0.02583640    -0.26100
Co1058     Co  0.29929666  0.80933869  0.99022699     0.74100
C1059       C  0.24070947  0.85653501  0.05541200     0.42500
N1060       N  0.19054715  0.77503355  0.00894307     0.00900
N1061       N  0.26670013  0.82968493  0.02181516     0.01000
N1062       N  0.34327745  0.74771232  0.42952444    -0.47000
H1063       H  0.30198179  0.67540558  0.04776109     0.06800
N1064       N  0.31886921  0.75231561  0.02259820     0.01300
N1065       N  0.27980954  0.83099311  0.45392537     0.01000
C1066       C  0.27154706  0.85764859  0.41109636     0.42600
N1067       N  0.19214576  0.74496598  0.00878967    -0.25600
C1068       C  0.29703191  0.68382156  0.42665285    -0.06500
N1069       N  0.22650599  0.67758335  0.03166304    -0.46700
N1070       N  0.29278349  0.85194410  0.43375144    -0.46900
C1071       C  0.27183407  0.66947101  0.40820886     0.42400
N1072       N  0.32674746  0.75655525  0.45396229     0.01300
N1073       N  0.20105211  0.74490126  0.44024548    -0.25600
N1074       N  0.27187061  0.69939575  0.01576687    -0.26100
N1075       N  0.19949895  0.77484355  0.44084620     0.00900
H1076       H  0.17401206  0.71033440  0.41687934     0.06800
H1077       H  0.22155336  0.83611329  0.40901796     0.06800
N1078       N  0.33003667  0.78623901  0.45801909    -0.26100
N1079       N  0.23686769  0.82617838  0.01443461    -0.25800
N1080       N  0.25257962  0.70002776  0.44327122     0.01300
C1081       C  0.34798489  0.75847058  0.06349492     0.42700
C1082       C  0.17225024  0.73296925  0.03088055    -0.07000
N1083       N  0.25053767  0.82367539  0.44708184    -0.25800
H1084       H  0.19435257  0.84316465  0.03280719     0.06800
N1085       N  0.33462026  0.73796660  0.04425251    -0.47000
H1086       H  0.16735071  0.70880307  0.03532528     0.06800
C1087       C  0.16436519  0.76083751  0.40722545     0.42500
C1088       C  0.27871408  0.67947440  0.03937949    -0.06500
Co1089     Co  0.22222557  0.72024531  0.47595789     0.73800
N1090       N  0.16951240  0.78443457  0.02983690    -0.46700
C1091       C  0.36059179  0.77188447  0.41700562     0.42800
N1092       N  0.24498489  0.68043532  0.42102190    -0.46700
Co1093     Co  0.21845804  0.80179879  0.97709641     0.73900
C1094       C  0.24439063  0.83694000  0.41957250    -0.07000
C1095       C  0.33831475  0.78859875  0.05110043    -0.06600
N1096       N  0.28306564  0.70219614  0.44734536    -0.26100
N1097       N  0.27029511  0.84820604  0.04641183    -0.46900
H1098       H  0.35921334  0.82157730  0.43391609     0.06800
C1099       C  0.18065440  0.73424976  0.41930855    -0.07000
Cl1100     Cl  0.25918172  0.76562195  0.98233372    -0.50000
C1101       C  0.15750054  0.75905890  0.04510573     0.42500
H1102       H  0.32164188  0.67891001  0.42644588     0.06800
N1103       N  0.17718722  0.78504316  0.42239982    -0.46700
C1104       C  0.12625132  0.75626583  0.06017274     0.80200
N1105       N  0.11866387  0.77079037  0.08725926    -0.78200
C1106       C  0.09075624  0.76311207  0.10252007     0.82600
N1107       N  0.07238156  0.73975613  0.09171977    -0.78100
C1108       C  0.08043171  0.72433709  0.06589789     0.82700
N1109       N  0.10727907  0.73322767  0.05017043    -0.79800
C1110       C  0.36861459  0.74641518  0.08876593     0.80200
N1111       N  0.36641740  0.71545176  0.09131287    -0.78200
C1112       C  0.38582217  0.69932942  0.10894817     0.82600
N1113       N  0.40793232  0.71444151  0.12483519    -0.78100
C1114       C  0.41193150  0.74520759  0.12320142     0.82700
N1115       N  0.39250182  0.76199611  0.10418857    -0.79800
C1116       C  0.08690886  0.76129680  0.36699746     0.80200
N1117       N  0.11779222  0.76840786  0.37324124    -0.78200
C1118       C  0.13028379  0.75800412  0.40072722     0.82600
N1119       N  0.11234184  0.73938491  0.42053678    -0.78100
C1120       C  0.08199261  0.73203027  0.41442850     0.82700
N1121       N  0.06971836  0.74272405  0.38749343    -0.79800
C1122       C  0.41935501  0.74469364  0.36179446     0.80200
N1123       N  0.42196902  0.71788305  0.37803683    -0.78200
C1124       C  0.41209533  0.71538811  0.40847079     0.82600
N1125       N  0.40194897  0.74019723  0.42283921    -0.78100
C1126       C  0.39248942  0.76436016  0.40590245     0.82700
N1127       N  0.40179810  0.76716182  0.37476007    -0.79800
N1128       N  0.46501759  0.60671318  0.45300127    -0.36700
N1129       N  0.42732361  0.58759064  0.00605866    -0.57200
N1130       N  0.48353096  0.57403302  0.04930677    -0.36700
N1131       N  0.03747220  0.61397413  0.99384026    -0.57200
C1132       C  0.43678886  0.61257710  0.44107539     0.26900
C1133       C  0.98652552  0.61593987  0.44228632     0.26900
C1134       C  0.46046813  0.57818642  0.07078577     0.26900
C1135       C  0.00865164  0.58482337  0.06453555     0.26900
C1136       C  0.40394196  0.58996649  0.48619937     0.35500
C1137       C  0.41518531  0.57819652  0.03436592     0.35500
C1138       C  0.02706108  0.59919321  0.47565083     0.35500
C1139       C  0.03729219  0.59126460  0.01548780     0.35500
C1140       C  0.44237572  0.62823912  0.41233336    -0.22000
C1141       C  0.97466603  0.63323563  0.41855394    -0.22000
C1142       C  0.47365929  0.58383079  0.09970658    -0.22000
C1143       C  0.00270400  0.58745122  0.09651977    -0.22000
C1144       C  0.37573133  0.58170647  0.50165673    -0.23000
C1145       C  0.38282819  0.57431466  0.03210007    -0.23000
C1146       C  0.01958434  0.56834344  0.48044821    -0.23000
C1147       C  0.02937063  0.56343600  0.00223325    -0.23000
C1148       C  0.40702046  0.60746697  0.45757602    -0.18400
C1149       C  0.01807806  0.61773871  0.45096429    -0.18400
C1150       C  0.03523756  0.59810684  0.04742924    -0.18400
C1151       C  0.42980418  0.58628577  0.06259504    -0.18400
H1152       H  0.42612823  0.63348342  0.39436265     0.14500
H1153       H  0.98762647  0.64741109  0.40105748     0.14500
H1154       H  0.46132255  0.59014052  0.12102824     0.14500
H1155       H  0.01934597  0.59482088  0.11387975     0.14500
H1156       H  0.35235003  0.58409655  0.49274322     0.12800
H1157       H  0.36599734  0.57033192  0.05144090     0.12800
H1158       H  0.00893267  0.55289228  0.46400791     0.12800
H1159       H  0.02490383  0.54168113  0.01446320     0.12800
H1160       H  0.46968769  0.59626557  0.47432869     0.26100
H1161       H  0.47957330  0.57286626  0.02537599     0.26100
C1162       C  0.08884611  0.66989824  0.23691242     0.42400
N1163       N  0.05089499  0.70057863  0.24789933     0.01300
C1164       C  0.45457472  0.78523430  0.14956868    -0.06600
H1165       H  0.06714144  0.81969396  0.13717091     0.06800
C1166       C  0.05525197  0.84160243  0.27137750    -0.06900
Co1167     Co  0.51769600  0.72423291  0.19103526     0.74200
N1168       N  0.04719166  0.78536885  0.17012337    -0.26100
Co1169     Co  0.51161295  0.80498230  0.19297781     0.74100
C1170       C  0.07337890  0.86042745  0.24847616     0.42500
N1171       N  0.03714032  0.77444038  0.30284585     0.00900
N1172       N  0.03996274  0.83056861  0.22488764     0.01000
N1173       N  0.46094242  0.73452578  0.14983842    -0.47000
H1174       H  0.08084569  0.67665905  0.18358287     0.06800
N1175       N  0.05115254  0.75564499  0.17256046     0.01300
N1176       N  0.47320236  0.82371534  0.21710153     0.01000
C1177       C  0.43120597  0.84832398  0.23005478     0.42600
N1178       N  0.04178025  0.74515460  0.29930119    -0.25600
C1179       C  0.46308005  0.67247265  0.20179609    -0.06500
N1180       N  0.07148657  0.68219218  0.26030467    -0.46700
N1181       N  0.45254218  0.84339694  0.20641762    -0.46900
C1182       C  0.44841507  0.65711339  0.23007601     0.42400
N1183       N  0.48327234  0.74818468  0.16592592     0.01300
N1184       N  0.47273170  0.73670161  0.29538926    -0.25600
N1185       N  0.05250682  0.70138576  0.21691821    -0.26100
N1186       N  0.46888588  0.76636176  0.29624903     0.00900
H1187       H  0.45092541  0.69867638  0.32176572     0.06800
H1188       H  0.43303304  0.82871146  0.28071303     0.06800
N1189       N  0.48031077  0.77817486  0.16626489    -0.26100
N1190       N  0.03525429  0.82477788  0.25531575    -0.25800
N1191       N  0.48089847  0.69288763  0.24385521     0.01300
C1192       C  0.08460406  0.77044269  0.13560496     0.42700
C1193       C  0.06482801  0.73678844  0.31802779    -0.07000
N1194       N  0.46828553  0.81654315  0.24711666    -0.25800
H1195       H  0.05582959  0.84172057  0.29678217     0.06800
N1196       N  0.07352727  0.74650619  0.15354993    -0.47000
H1197       H  0.07209116  0.71359824  0.32163631     0.06800
C1198       C  0.43448708  0.74741961  0.33007661     0.42500
C1199       C  0.07564682  0.68264881  0.20765448    -0.06500
Co1200     Co  0.51114422  0.71837756  0.27126924     0.73800
N1201       N  0.05538259  0.78638696  0.32484735    -0.46700
C1202       C  0.44159251  0.75579787  0.13853868     0.42800
N1203       N  0.46121581  0.67093275  0.25488536    -0.46700
Co1204     Co  0.50249778  0.79578164  0.27454880     0.73900
C1205       C  0.44149341  0.82879929  0.25647050    -0.07000
C1206       C  0.06704344  0.79665942  0.14695666    -0.06600
N1207       N  0.48290688  0.69437137  0.21283467    -0.26100
N1208       N  0.06230332  0.85286841  0.21953684    -0.46900
H1209       H  0.44547730  0.80780620  0.14666128     0.06800
C1210       C  0.45173162  0.72279305  0.31552493    -0.07000
Cl1211     Cl  0.51080300  0.76076647  0.23242176    -0.50000
C1212       C  0.07454108  0.76414188  0.33483575     0.42500
H1213       H  0.46103235  0.66650557  0.17736700     0.06800
N1214       N  0.44692643  0.77383080  0.31719436    -0.46700
C1215       C  0.22850602  0.87601253  0.08148051     0.80200
N1216       N  0.19634933  0.87569254  0.08523079    -0.78200
C1217       C  0.18182656  0.89241688  0.10729573     0.82600
N1218       N  0.20013161  0.91008674  0.12528055    -0.78100
C1219       C  0.23191140  0.91197974  0.12231632     0.82700
N1220       N  0.24676307  0.89479227  0.10000957    -0.79800
C1221       C  0.23914412  0.64337699  0.07714572     0.80200
N1222       N  0.26037506  0.62694358  0.09431034    -0.78200
C1223       C  0.24964625  0.61177948  0.12154355     0.82600
N1224       N  0.21919562  0.61442865  0.13058143    -0.78100
C1225       C  0.19743183  0.62385417  0.11081090     0.82700
N1226       N  0.20756030  0.63895222  0.08393578    -0.79800
C1227       C  0.27219904  0.63712307  0.39803390     0.80200
N1228       N  0.27645849  0.62832746  0.36730457    -0.78200
C1229       C  0.27301226  0.59783664  0.36000534     0.82600
N1230       N  0.26360526  0.57729016  0.38314734    -0.78100
C1231       C  0.25864767  0.58617217  0.41317590     0.82700
N1232       N  0.26314253  0.61583915  0.42026798    -0.79800
C1233       C  0.25483189  0.92786829  0.36346686     0.80200
N1234       N  0.27238030  0.90418868  0.37431599    -0.78200
C1235       C  0.26275780  0.88901415  0.40192368     0.82600
N1236       N  0.23603532  0.89711748  0.41679107    -0.78100
C1237       C  0.21736279  0.91792679  0.40455294     0.82700
N1238       N  0.22694730  0.93323964  0.37813795    -0.79800
N1239       N  0.14801871  0.54375510  0.04886219    -0.36700
N1240       N  0.08243334  0.98891300  0.07568108    -0.57200
N1241       N  0.11148327  0.93321311  0.04668941    -0.36700
N1242       N  0.16063229  0.97041037  0.52076687    -0.57200
C1243       C  0.11645755  0.54056334  0.05351768     0.26900
C1244       C  0.15088398  0.53492360  0.51641357     0.26900
C1245       C  0.08086499  0.93131848  0.05527596     0.26900
C1246       C  0.11059698  0.92567615  0.51676541     0.26900
C1247       C  0.08060431  0.51728100  0.09277419     0.35500
C1248       C  0.06805609  0.96686950  0.09398179     0.35500
C1249       C  0.18158505  0.49094094  0.50914363     0.35500
C1250       C  0.16518288  0.94256424  0.50934052     0.35500
C1251       C  0.10276238  0.53069269  0.02612957    -0.22000
C1252       C  0.12229190  0.52632897  0.50369065    -0.22000
C1253       C  0.06272096  0.92350971  0.03005772    -0.22000
C1254       C  0.08025645  0.91951692  0.50687029    -0.22000
C1255       C  0.06507620  0.51226894  0.12151128    -0.23000
C1256       C  0.05676729  0.97981632  0.12130740    -0.23000
C1257       C  0.20463926  0.47364399  0.49568398    -0.23000
C1258       C  0.19521332  0.94208026  0.49569702    -0.23000
C1259       C  0.10091361  0.54223246  0.08320912    -0.18400
C1260       C  0.17958158  0.52288920  0.50698549    -0.18400
C1261       C  0.13879408  0.92539618  0.49890560    -0.18400
C1262       C  0.07060834  0.93561059  0.08646914    -0.18400
H1263       H  0.07827991  0.52451162  0.02275993     0.14500
H1264       H  0.11894309  0.51574846  0.48125229     0.14500
H1265       H  0.03746547  0.91968779  0.03009965     0.14500
H1266       H  0.07345555  0.91268703  0.48375414     0.14500
H1267       H  0.06216863  0.52856816  0.14000187     0.12800
H1268       H  0.04336882  0.96863789  0.14040174     0.12800
H1269       H  0.22660265  0.48181968  0.48449783     0.12800
H1270       H  0.20479011  0.92385020  0.48214114     0.12800
H1271       H  0.16518160  0.54773188  0.06532480     0.26100
H1272       H  0.13000702  0.93847088  0.06153559     0.26100
C1273       C  0.09213966  0.88740783  0.26020528     0.80200
N1274       N  0.11719302  0.90323976  0.24508856    -0.78200
C1275       C  0.13436346  0.92454146  0.26178499     0.82600
N1276       N  0.12708691  0.92803941  0.29264230    -0.78100
C1277       C  0.10269549  0.91300007  0.30749247     0.82700
N1278       N  0.08545901  0.89313672  0.29091647    -0.79800
C1279       C  0.39583262  0.58762696  0.22153300     0.80200
N1280       N  0.40880317  0.61643516  0.21619832    -0.78200
C1281       C  0.43366613  0.62609797  0.23372248     0.82600
N1282       N  0.44215214  0.60859541  0.25880489    -0.78100
C1283       C  0.42946959  0.57996239  0.26344728     0.82700
N1284       N  0.40783848  0.56944136  0.24378968    -0.79800
C1285       C  0.10373139  0.63971466  0.24315589     0.80200
N1286       N  0.13073919  0.62943953  0.22839609    -0.78200
C1287       C  0.14277998  0.60203379  0.23869201     0.82600
N1288       N  0.12847077  0.58662585  0.26321250    -0.78100
C1289       C  0.10324786  0.59708721  0.27815181     0.82700
N1290       N  0.09092685  0.62339620  0.26824755    -0.79800
C1291       C  0.38532648  0.91932422  0.24520152     0.80200
N1292       N  0.39885607  0.92560647  0.27311414    -0.78200
C1293       C  0.42387182  0.91054240  0.28314749     0.82600
N1294       N  0.43531515  0.88853578  0.26565874    -0.78100
C1295       C  0.42166244  0.87951744  0.23899359     0.82700
N1296       N  0.39582369  0.89475753  0.22836293    -0.79800
N1297       N  0.44942478  0.98607693  0.40879614    -0.36700
N1298       N  0.00273806  0.91515212  0.41858203    -0.57200
N1299       N  0.03386708  0.98773858  0.41339313    -0.36700
N1300       N  0.99548325  0.53666698  0.40471206    -0.57200
C1301       C  0.43226006  0.95950558  0.41164105     0.26900
C1302       C  0.42598738  0.50147160  0.40027402     0.26900
C1303       C  0.05198086  0.97127226  0.43232176     0.26900
C1304       C  0.05825761  0.51863054  0.41103479     0.26900
C1305       C  0.47339003  0.92755576  0.42965806     0.35500
C1306       C  0.02284516  0.92578189  0.43998343     0.35500
C1307       C  0.46300811  0.54628603  0.38852273     0.35500
C1308       C  0.02049419  0.55487975  0.39529620     0.35500
C1309       C  0.40190182  0.96401947  0.40208703    -0.22000
C1310       C  0.39638758  0.48727129  0.39971021    -0.22000
C1311       C  0.07452794  0.98999434  0.44537386    -0.22000
C1312       C  0.06253013  0.51894341  0.44317979    -0.22000
C1313       C  0.47563626  0.93732477  0.46017243    -0.23000
C1314       C  0.00638752  0.93375279  0.46703921    -0.23000
C1315       C  0.47187029  0.57283295  0.37133863    -0.23000
C1316       C  0.01094639  0.58006760  0.37850195    -0.23000
C1317       C  0.44696052  0.93131672  0.41115851    -0.18400
C1318       C  0.43429279  0.52945146  0.38450855    -0.18400
C1319       C  0.05050571  0.54324055  0.39180067    -0.18400
C1320       C  0.05220703  0.93925078  0.43091010    -0.18400
H1321       H  0.38325678  0.94691349  0.39961004     0.14500
H1322       H  0.37523770  0.49653919  0.39067573     0.14500
H1323       H  0.09156088  0.98286181  0.46182468     0.14500
H1324       H  0.06540240  0.53874060  0.45753101     0.14500
H1325       H  0.45695798  0.94582783  0.47492133     0.12800
H1326       H  0.01573484  0.94608084  0.48669035     0.12800
H1327       H  0.45725916  0.58715074  0.35738383     0.12800
H1328       H  0.02575805  0.59738517  0.36621293     0.12800
H1329       H  0.47349535  0.98773596  0.41106948     0.26100
H1330       H  0.01622318  0.97892996  0.39917271     0.26100
C1331       C  0.16150614  0.94489978  0.24987159     0.42400
N1332       N  0.19642823  0.98204009  0.25469286     0.01300
C1333       C  0.29128216  0.56676681  0.14289542    -0.06600
H1334       H  0.30090051  0.94003917  0.14151689     0.06800
C1335       C  0.34270869  0.95546968  0.26352926    -0.06900
Co1336     Co  0.22285382  0.51168534  0.19144903     0.74200
N1337       N  0.27401491  0.97187553  0.16905593    -0.26100
Co1338     Co  0.30518102  0.50618817  0.18703258     0.74100
C1339       C  0.35654839  0.93743638  0.23868143     0.42500
N1340       N  0.27833392  0.98161374  0.30170390     0.00900
N1341       N  0.32729773  0.97257246  0.21859016     0.01000
N1342       N  0.23933641  0.56476395  0.15042307    -0.47000
H1343       H  0.16491314  0.94997028  0.19557133     0.06800
N1344       N  0.24333402  0.97480684  0.17280886     0.01300
N1345       N  0.33223498  0.54024316  0.20864477     0.01000
C1346       C  0.36243818  0.58010061  0.21687071     0.42600
N1347       N  0.24752533  0.98284299  0.30057406    -0.25600
C1348       C  0.18221464  0.57115353  0.20309550    -0.06500
N1349       N  0.17744820  0.96226689  0.27049304    -0.46700
N1350       N  0.35298116  0.56005182  0.19486751    -0.46900
C1351       C  0.17425086  0.58993382  0.23048804     0.42400
N1352       N  0.25137126  0.54127818  0.16415939     0.01300
N1353       N  0.25226190  0.55234964  0.29334199    -0.25600
N1354       N  0.19429590  0.97950192  0.22404388    -0.26100
N1355       N  0.28298663  0.55062977  0.29366759     0.00900
H1356       H  0.21971308  0.57896162  0.31967389     0.06800
H1357       H  0.34745319  0.57886572  0.26927591     0.06800
N1358       N  0.28221874  0.54116175  0.16083378    -0.26100
N1359       N  0.32597796  0.97662881  0.24938671    -0.25800
N1360       N  0.20442290  0.55251074  0.24373425     0.01300
C1361       C  0.24636131  0.93581182  0.14261703     0.42700
C1362       C  0.23456356  0.96057558  0.31886313    -0.07000
N1363       N  0.32863864  0.54476723  0.23908812    -0.25800
H1364       H  0.34686428  0.95438070  0.28851983     0.06800
N1365       N  0.22673875  0.95415034  0.15782821    -0.47000
H1366       H  0.20974593  0.95654307  0.32310142     0.06800
C1367       C  0.27273271  0.58672575  0.32686778     0.42500
C1368       C  0.17257859  0.95671900  0.21846906    -0.06500
Co1369     Co  0.22451234  0.51873900  0.27149652     0.73800
N1370       N  0.28728024  0.95987246  0.32185528    -0.46700
C1371       C  0.26170308  0.58282930  0.13604127     0.42800
N1372       N  0.18930033  0.57613014  0.25441893    -0.46700
Co1373     Co  0.30497793  0.01306318  0.27241410     0.73900
C1374       C  0.34464114  0.57040604  0.24576224    -0.07000
C1375       C  0.27841263  0.94765459  0.14997030    -0.06600
N1376       N  0.20129302  0.54908510  0.21337202    -0.26100
N1377       N  0.34642265  0.94994421  0.21105556    -0.46900
H1378       H  0.31528396  0.57416007  0.13705492     0.06800
C1379       C  0.24372548  0.57439446  0.31299894    -0.07000
Cl1380     Cl  0.26441737  0.51227237  0.22993276    -0.50000
C1381       C  0.26041257  0.94511956  0.33318180     0.42500
H1382       H  0.17352455  0.57319863  0.17970366     0.06800
N1383       N  0.29586181  0.56972771  0.31417828    -0.46700
C1384       C  0.41124001  0.89975128  0.33890194    -0.05800
C1385       C  0.43299447  0.91155408  0.31600758     0.00100
C1386       C  0.46352718  0.92066948  0.32484764    -0.08500
C1387       C  0.46831022  0.92599232  0.35675425    -0.05900
C1388       C  0.44531089  0.91690745  0.38002093     0.00100
C1389       C  0.41776363  0.90060732  0.37097316    -0.08400
C1390       C  0.39497448  0.88364552  0.39393792     0.62000
H1391       H  0.38917230  0.88930918  0.33159686     0.12700
H1392       H  0.48972332  0.93796568  0.36336131     0.12700
C1393       C  0.49120424  0.92208034  0.30149203     0.62200
F1394       F  0.36461181  0.89241640  0.38887140    -0.23000
F1395       F  0.40181423  0.88861922  0.42504925    -0.20300
F1396       F  0.39635592  0.85264017  0.38885675    -0.20000
F1397       F  0.48430442  0.93804747  0.27437671    -0.20000
F1398       F  0.49818047  0.89263199  0.29352529    -0.20300
F1399       F  0.51771587  0.93570077  0.31411956    -0.23000
C1400       C  0.06646115  0.56074854  0.30483942    -0.05800
C1401       C  0.09185136  0.58122208  0.30695171     0.00100
C1402       C  0.10726853  0.58463060  0.33566602    -0.08500
C1403       C  0.09567972  0.56746204  0.36222415    -0.05900
C1404       C  0.06779682  0.54944700  0.36116650     0.00100
C1405       C  0.05393956  0.54471691  0.33137230    -0.08400
C1406       C  0.02499248  0.52507646  0.32536256     0.62000
H1407       H  0.05568454  0.55787648  0.28217769     0.12700
H1408       H  0.10646396  0.57038433  0.38473360     0.12700
C1409       C  0.13419807  0.60809867  0.33837734     0.62200
F1410       F  0.00187861  0.54417249  0.31600726    -0.23000
F1411       F  0.03161032  0.50570189  0.30107260    -0.20300
F1412       F  0.01398020  0.50759231  0.35092646    -0.20000
F1413       F  0.12467880  0.63653654  0.32850810    -0.20000
F1414       F  0.15959479  0.60005371  0.31988001    -0.20300
F1415       F  0.14378755  0.61055763  0.36897700    -0.23000
C1416       C  0.40732946  0.57488819  0.31713247    -0.05800
C1417       C  0.42886107  0.56468797  0.29443215     0.00100
C1418       C  0.44256186  0.53628482  0.29901709    -0.08500
C1419       C  0.43780168  0.52092006  0.32821076    -0.05900
C1420       C  0.42093283  0.53413035  0.35288081     0.00100
C1421       C  0.40242577  0.55921287  0.34619404    -0.08400
C1422       C  0.37765344  0.56862104  0.36956944     0.62000
H1423       H  0.39411632  0.59490632  0.31170587     0.12700
H1424       H  0.45002085  0.50021557  0.33325188     0.12700
C1425       C  0.46307872  0.52319680  0.27354292     0.62200
F1426       F  0.35531273  0.54511926  0.37425382    -0.23000
F1427       F  0.36250667  0.59396791  0.35876176    -0.20300
F1428       F  0.39124629  0.57498041  0.39787774    -0.20000
F1429       F  0.48777621  0.54365513  0.26566731    -0.20000
F1430       F  0.44567755  0.51753800  0.24717217    -0.20300
F1431       F  0.47530116  0.49612726  0.28344005    -0.23000
C1432       C  0.09527988  0.94684042  0.38920466    -0.05800
C1433       C  0.07221939  0.92696786  0.40403451     0.00100
C1434       C  0.06701791  0.89810630  0.39005453    -0.08500
C1435       C  0.07675099  0.89466214  0.35837796    -0.05900
C1436       C  0.09504929  0.91750283  0.34156305     0.00100
C1437       C  0.10576131  0.94356287  0.35798963    -0.08400
C1438       C  0.12622163  0.96933816  0.34258098     0.62000
H1439       H  0.10348539  0.96681862  0.40111084     0.12700
H1440       H  0.07085632  0.87334302  0.34708117     0.12700
C1441       C  0.05520298  0.86956343  0.40832304     0.62200
F1442       F  0.13056773  0.99397414  0.36199810    -0.23000
F1443       F  0.11265515  0.98031342  0.31562301    -0.20300
F1444       F  0.15527362  0.95843879  0.33512623    -0.20000
F1445       F  0.02469612  0.86176251  0.40043315    -0.20000
F1446       F  0.05668590  0.87328182  0.44045798    -0.20300
F1447       F  0.07391101  0.84547103  0.40084614    -0.23000
C1448       C  0.14548570  0.94604251  0.44559189    -0.05800
C1449       C  0.13869795  0.91970704  0.46460847     0.00100
C1450       C  0.14795055  0.89132614  0.45354201    -0.08500
C1451       C  0.17095356  0.89144654  0.42946528    -0.05900
C1452       C  0.18503235  0.91911035  0.41743064     0.00100
C1453       C  0.17016023  0.94673851  0.42302072    -0.08400
C1454       C  0.18373640  0.97748476  0.41091033     0.62000
H1455       H  0.13818093  0.96757426  0.45435888     0.12700
H1456       H  0.18052347  0.86989596  0.42282207     0.12700
C1457       C  0.13707240  0.86096792  0.46857534     0.62200
F1458       F  0.16328669  0.00043068  0.41704242    -0.23000
F1459       F  0.18900482  0.97761361  0.37886242    -0.20300
F1460       F  0.21186521  0.98409431  0.42522354    -0.20000
F1461       F  0.11369385  0.86409169  0.49127247    -0.20000
F1462       F  0.16225406  0.84725554  0.48217729    -0.18800
F1463       F  0.12527906  0.84208837  0.44569643    -0.23000
C1464       C  0.18889048  0.54628139  0.45457092    -0.05800
C1465       C  0.20066319  0.54038043  0.48442387     0.00100
C1466       C  0.23230621  0.54886558  0.49068667    -0.08500
C1467       C  0.25139735  0.56209883  0.46609871    -0.05900
C1468       C  0.23984778  0.56675059  0.43583607     0.00100
C1469       C  0.20796004  0.55914847  0.42999464    -0.08400
C1470       C  0.19370810  0.56593656  0.39835896     0.62000
H1471       H  0.16443043  0.54048560  0.45064356     0.12700
H1472       H  0.27536212  0.56963011  0.47077217     0.12700
C1473       C  0.24666983  0.54608488  0.52286824     0.62200
F1474       F  0.16176150  0.55905522  0.39870447    -0.23000
F1475       F  0.20758895  0.54867083  0.37543470    -0.20300
F1476       F  0.19834767  0.59666423  0.39063366    -0.20000
F1477       F  0.27366633  0.52961609  0.52056086    -0.20000
F1478       F  0.25457195  0.57505611  0.53313599    -0.20300
F1479       F  0.22674832  0.53180383  0.54532578    -0.23000
C1480       C  0.11187707  0.59436880  0.10354691    -0.05800
C1481       C  0.11621909  0.56258902  0.10633223     0.00100
C1482       C  0.14401151  0.55275561  0.11982122    -0.08500
C1483       C  0.16974150  0.57352454  0.11933685    -0.05900
C1484       C  0.16725481  0.60499079  0.11252212     0.00100
C1485       C  0.13693185  0.61598411  0.10845533    -0.08400
C1486       C  0.13128444  0.64972136  0.11062074     0.62000
H1487       H  0.08951834  0.60200641  0.09570956     0.12700
H1488       H  0.19241166  0.56438617  0.12232710     0.12700
C1489       C  0.14800438  0.51970932  0.13048211     0.62200
F1490       F  0.09953039  0.65522292  0.11064144    -0.23000
F1491       F  0.14616348  0.66571183  0.08570931    -0.20300
F1492       F  0.14314904  0.66037684  0.13847012    -0.20000
F1493       F  0.14425265  0.49994560  0.10586091    -0.20000
F1494       F  0.12591362  0.51208204  0.15400823    -0.20300
F1495       F  0.17742858  0.51546734  0.14259388    -0.23000
C1496       C  0.09157493  0.88432767  0.09718411    -0.05800
C1497       C  0.08356118  0.91266554  0.10960374     0.00100
C1498       C  0.10301272  0.92309415  0.13348407    -0.08500
C1499       C  0.13508489  0.91684272  0.13148209    -0.05900
C1500       C  0.14651488  0.89473866  0.11077425     0.00100
C1501       C  0.12343051  0.87596006  0.09575453    -0.08400
C1502       C  0.13186561  0.84942478  0.07569241     0.62000
H1503       H  0.07479241  0.87317140  0.08208342     0.12700
H1504       H  0.15060545  0.92782465  0.14786198     0.12700
C1505       C  0.08916238  0.93014431  0.16531477     0.62200
F1506       F  0.10550194  0.83198957  0.06791910    -0.23000
F1507       F  0.15174844  0.83058713  0.09157805    -0.20300
F1508       F  0.14609126  0.86076823  0.04814239    -0.20000
F1509       F  0.05701333  0.92397606  0.16690243    -0.20000
F1510       F  0.09569334  0.96022440  0.17255755    -0.20300
F1511       F  0.10230134  0.91157043  0.18747235    -0.23000
C1512       C  0.37247010  0.63646546  0.42176988    -0.05800
C1513       C  0.38242920  0.63076419  0.45241175     0.00100
C1514       C  0.38620024  0.65707664  0.47044880    -0.08500
C1515       C  0.40070490  0.68292708  0.45558497    -0.05900
C1516       C  0.40051565  0.68595231  0.42263078     0.00100
C1517       C  0.38078326  0.66476952  0.40635105    -0.08400
C1518       C  0.36925511  0.67121214  0.37347256     0.62000
H1519       H  0.36091180  0.61825825  0.40944770     0.12700
H1520       H  0.40867674  0.70200111  0.46949627     0.12700
C1521       C  0.36759416  0.66021437  0.50092236     0.62200
F1522       F  0.39359488  0.66881239  0.35160085    -0.23000
F1523       F  0.35758272  0.70022162  0.37155831    -0.20300
F1524       F  0.34517764  0.65081886  0.36592650    -0.20000
F1525       F  0.37788880  0.64087106  0.52398041    -0.20000
F1526       F  0.33621800  0.65307978  0.49590874    -0.20300
F1527       F  0.37005475  0.68975147  0.51171233    -0.23000
C1528       C  0.02247582  0.67494884  0.45284245    -0.05800
C1529       C  0.03654339  0.64729012  0.44509622     0.00100
C1530       C  0.06752021  0.64864412  0.43199287    -0.08500
C1531       C  0.08220870  0.67720304  0.42489404    -0.05900
C1532       C  0.06703415  0.70444165  0.42975071     0.00100
C1533       C  0.03699952  0.70364018  0.44463316    -0.08400
C1534       C  0.02083566  0.73293027  0.45204852     0.62000
H1535       H  0.99945482  0.67386596  0.46438261     0.12700
H1536       H  0.10515440  0.67816115  0.41304208     0.12700
C1537       C  0.08476853  0.62158692  0.42031071     0.62200
F1538       F  0.99222296  0.72725216  0.46775508    -0.23000
F1539       F  0.01543877  0.74911921  0.42454549    -0.20300
F1540       F  0.03984505  0.75062978  0.47090545    -0.20000
F1541       F  0.07156045  0.59374064  0.43017536    -0.20000
F1542       F  0.11550930  0.62306708  0.43017211    -0.20300
F1543       F  0.08465438  0.62346477  0.38793130    -0.23000
C1544       C  0.41445192  0.67046343  0.07143641    -0.05800
C1545       C  0.39428708  0.66945880  0.09779100     0.00100
C1546       C  0.38674839  0.64163107  0.11381734    -0.08500
C1547       C  0.39893276  0.61468094  0.10175171    -0.05900
C1548       C  0.41960276  0.61566959  0.07533199     0.00100
C1549       C  0.42871516  0.64455478  0.06058531    -0.08400
C1550       C  0.45183785  0.65037296  0.03273849     0.62000
H1551       H  0.42008909  0.69242067  0.05979866     0.12700
H1552       H  0.39258716  0.59270613  0.11285421     0.12700
C1553       C  0.36597064  0.64086743  0.14316540     0.62200
F1554       F  0.46974142  0.67696585  0.03688177    -0.23000
F1555       F  0.43563340  0.65402797  0.00545453    -0.20300
F1556       F  0.47252262  0.62770666  0.02848119    -0.20000
F1557       F  0.33712252  0.65245797  0.13631104    -0.20000
F1558       F  0.37998051  0.65838265  0.16596399    -0.20300
F1559       F  0.36105593  0.61146401  0.15504931    -0.23000
C1560       C  0.08499880  0.67329869  0.04337020    -0.05800
C1561       C  0.06638926  0.69317688  0.06052820     0.00100
C1562       C  0.03778005  0.68136699  0.07479656    -0.08500
C1563       C  0.02983202  0.65005083  0.07203619    -0.05900
C1564       C  0.04900046  0.62955497  0.05575414     0.00100
C1565       C  0.07793153  0.64195681  0.04192894    -0.08400
C1566       C  0.10253873  0.62392914  0.02476982     0.62000
H1567       H  0.10676716  0.68188344  0.03200281     0.12700
H1568       H  0.00749790  0.64209220  0.08195203     0.12700
C1569       C  0.01478836  0.70140572  0.09200591     0.62200
F1570       F  0.13215264  0.63120138  0.03568200    -0.23000
F1571       F  0.10244428  0.63104743  0.99293610    -0.20300
F1572       F  0.09750332  0.59317103  0.02909338    -0.20000
F1573       F  0.00978322  0.72741924  0.07403021    -0.20000
F1574       F  0.02649998  0.70942437  0.12077436    -0.20300
F1575       F  0.98582781  0.68655783  0.09782762    -0.23000
C1576       C  0.24922225  0.66364673  0.55134987     0.42400
N1577       N  0.24293970  0.69536660  0.51229258     0.01300
C1578       C  0.34913548  0.79941584  0.93464661    -0.06600
H1579       H  0.34606557  0.80926193  0.55966878     0.06800
C1580       C  0.22064179  0.83679073  0.53678927    -0.06900
Co1581     Co  0.29933327  0.72889542  0.98452718     0.74200
N1582       N  0.32161253  0.78005432  0.52659782    -0.26100
Co1583     Co  0.30072698  0.80687362  0.49113990     0.74100
C1584       C  0.24216844  0.85155077  0.55801246     0.42500
N1585       N  0.19154919  0.77170730  0.50909450     0.00900
N1586       N  0.26805372  0.82643773  0.52295568     0.01000
N1587       N  0.33806376  0.75000505  0.92691840    -0.47000
H1588       H  0.30296641  0.67434151  0.55008898     0.06800
N1589       N  0.32056616  0.75004115  0.52348500     0.01300
N1590       N  0.27871628  0.83329001  0.95264582     0.01000
C1591       C  0.27179943  0.85902783  0.90882461     0.42600
N1592       N  0.19272753  0.74163561  0.50841450    -0.25600
C1593       C  0.29428485  0.68650676  0.92586284    -0.06500
N1594       N  0.22784712  0.67599181  0.53238016    -0.46700
N1595       N  0.29247851  0.85329710  0.93196737    -0.46900
C1596       C  0.26900903  0.67192171  0.90781212     0.42400
N1597       N  0.32359230  0.75887722  0.95257088     0.01300
N1598       N  0.19810219  0.74763730  0.94078120    -0.25600
N1599       N  0.27354178  0.69721758  0.51656168    -0.26100
N1600       N  0.19715431  0.77767686  0.94079515     0.00900
H1601       H  0.16850555  0.71301841  0.92041275     0.06800
H1602       H  0.22139141  0.83831275  0.90654385     0.06800
N1603       N  0.32811036  0.78833163  0.95695911    -0.26100
N1604       N  0.23813989  0.82240187  0.51604306    -0.25800
N1605       N  0.24986508  0.70255129  0.94282612     0.01300
C1606       C  0.34923681  0.75660597  0.56444376     0.42700
C1607       C  0.17152114  0.72960731  0.52943660    -0.07000
N1608       N  0.24937626  0.82634375  0.94563825    -0.25800
H1609       H  0.19549557  0.83722127  0.53638152     0.06800
N1610       N  0.33624118  0.73587857  0.54527039    -0.47000
H1611       H  0.16601172  0.70546382  0.53333703     0.06800
C1612       C  0.15968251  0.76349040  0.90993332     0.42500
C1613       C  0.27991040  0.67800136  0.54094924    -0.06500
Co1614     Co  0.22019846  0.72300428  0.97596696     0.73800
N1615       N  0.17002553  0.78116041  0.52945549    -0.46700
C1616       C  0.35626190  0.77350063  0.91425991     0.42800
N1617       N  0.24214247  0.68277624  0.92077511    -0.46700
Co1618     Co  0.21991962  0.79864873  0.47800230     0.73900
C1619       C  0.24395642  0.83914244  0.91762867    -0.07000
C1620       C  0.33957787  0.78659466  0.55191116    -0.06600
N1621       N  0.28038291  0.70479397  0.94662803    -0.26100
N1622       N  0.27175902  0.84432272  0.54800545    -0.46900
H1623       H  0.35694381  0.82311103  0.93163157     0.06800
C1624       C  0.17598794  0.73684914  0.92164335    -0.07000
Cl1625     Cl  0.26102379  0.76291333  0.48295308    -0.50000
C1626       C  0.15691720  0.75581965  0.54379789     0.42500
H1627       H  0.31894930  0.68165101  0.92547286     0.06800
N1628       N  0.17385414  0.78785109  0.92362954    -0.46700
C1629       C  0.12613970  0.75403356  0.56024217     0.80200
N1630       N  0.11996195  0.76948631  0.58717604    -0.78200
C1631       C  0.09229528  0.76307004  0.60348222     0.82600
N1632       N  0.07264985  0.74024726  0.59373266    -0.78100
C1633       C  0.07935931  0.72378620  0.56834516     0.82700
N1634       N  0.10600529  0.73137057  0.55152841    -0.79800
C1635       C  0.36972813  0.74498480  0.58977434     0.80200
N1636       N  0.36839597  0.71400252  0.59217874    -0.78200
C1637       C  0.38787906  0.69842846  0.61019261     0.82600
N1638       N  0.40921127  0.71414603  0.62648790    -0.78100
C1639       C  0.41222913  0.74501863  0.62494786     0.82700
N1640       N  0.39273717  0.76122270  0.60562341    -0.79800
C1641       C  0.08329124  0.76280830  0.86864287     0.80200
N1642       N  0.11399367  0.76988998  0.87523022    -0.78200
C1643       C  0.12551833  0.76152151  0.90376616     0.82600
N1644       N  0.10669270  0.74464494  0.92445706    -0.78100
C1645       C  0.07633805  0.73722298  0.91791712     0.82700
N1646       N  0.06504453  0.74630168  0.88995595    -0.79800
C1647       C  0.41628807  0.74463667  0.86041318     0.80200
N1648       N  0.41703892  0.71722397  0.87603938    -0.78200
C1649       C  0.40541702  0.71422622  0.90587856     0.82600
N1650       N  0.39511801  0.73889201  0.92024397    -0.78100
C1651       C  0.38771353  0.76401096  0.90361816     0.82700
N1652       N  0.39876741  0.76738479  0.87302718    -0.79800
N1653       N  0.46431894  0.60405529  0.95140077    -0.36700
N1654       N  0.42762032  0.58668186  0.50632902    -0.57200
N1655       N  0.48380890  0.57213006  0.54900562    -0.36700
N1656       N  0.03601498  0.61188645  0.50217766    -0.57200
C1657       C  0.43623527  0.61213311  0.94041016     0.26900
C1658       C  0.98494165  0.61512911  0.93434063     0.26900
C1659       C  0.46083858  0.57596302  0.57069139     0.26900
C1660       C  0.00517391  0.58514313  0.57398585     0.26900
C1661       C  0.40359844  0.58980057  0.98575952     0.35500
C1662       C  0.41535158  0.57735107  0.53459436     0.35500
C1663       C  0.02739360  0.60142309  0.96749199     0.35500
C1664       C  0.03344626  0.58976808  0.52443474     0.35500
C1665       C  0.44242925  0.62963704  0.91289419    -0.22000
C1666       C  0.97195940  0.62910111  0.90887565    -0.22000
C1667       C  0.47415779  0.58063706  0.59972179    -0.22000
C1668       C  0.99914390  0.59007053  0.60561740    -0.22000
C1669       C  0.37553643  0.58103082  0.00126060    -0.23000
C1670       C  0.38292918  0.57429507  0.53236979    -0.23000
C1671       C  0.02242019  0.57009667  0.97150709    -0.23000
C1672       C  0.02480740  0.56196434  0.51162532    -0.23000
C1673       C  0.40633291  0.60687984  0.95683668    -0.18400
C1674       C  0.01598162  0.61987104  0.94366540    -0.18400
C1675       C  0.03164333  0.59756936  0.55606855    -0.18400
C1676       C  0.43030568  0.58484234  0.56284659    -0.18400
H1677       H  0.42689277  0.63892436  0.89647733     0.14500
H1678       H  0.98413814  0.64220416  0.89004459     0.14500
H1679       H  0.46193990  0.58652281  0.62126216     0.14500
H1680       H  0.01577511  0.59860861  0.62244746     0.14500
H1681       H  0.35209907  0.58265888  0.99225514     0.12800
H1682       H  0.36606969  0.57041211  0.55169809     0.12800
H1683       H  0.01196310  0.55443669  0.95516313     0.12800
H1684       H  0.01901861  0.54060035  0.52416579     0.12800
H1685       H  0.46853572  0.59182957  0.97177515     0.26100
H1686       H  0.47974607  0.57152214  0.52503259     0.26100
C1687       C  0.08683439  0.66920895  0.73710023     0.42400
N1688       N  0.04940091  0.70055726  0.74747211     0.01300
C1689       C  0.45376432  0.78622330  0.65125900    -0.06600
H1690       H  0.07061111  0.82032878  0.63797087     0.06800
C1691       C  0.05898637  0.84006905  0.77090512    -0.06900
Co1692     Co  0.51749776  0.72600443  0.69183694     0.74200
N1693       N  0.04901104  0.78609896  0.66998002    -0.26100
Co1694     Co  0.51118129  0.80655669  0.69416717     0.74100
C1695       C  0.07768086  0.85845632  0.74800935     0.42500
N1696       N  0.03674368  0.77457173  0.80227924     0.00900
N1697       N  0.04241930  0.83061613  0.72454701     0.01000
N1698       N  0.46103655  0.73566493  0.65157602    -0.47000
H1699       H  0.08015134  0.67649567  0.68358969     0.06800
N1700       N  0.05262806  0.75638223  0.67267831     0.01300
N1701       N  0.47298835  0.82474568  0.71886494     0.01000
C1702       C  0.43028719  0.84813314  0.73194595     0.42600
N1703       N  0.04055377  0.74504712  0.79946565    -0.25600
C1704       C  0.46198782  0.67528400  0.70203659    -0.06500
N1705       N  0.06929064  0.68165575  0.76022352    -0.46700
N1706       N  0.45160769  0.84367252  0.70822089    -0.46900
C1707       C  0.44691606  0.65972377  0.72993524     0.42400
N1708       N  0.48315268  0.74975636  0.66741033     0.01300
N1709       N  0.47363317  0.73758409  0.79658828    -0.25600
N1710       N  0.05161868  0.70154897  0.71649968    -0.26100
N1711       N  0.47006586  0.76725824  0.79793206     0.00900
H1712       H  0.45010242  0.69920469  0.82102930     0.06800
H1713       H  0.43274190  0.82832206  0.78255640     0.06800
N1714       N  0.47975922  0.77964837  0.66777714    -0.26100
N1715       N  0.03770377  0.82464626  0.75492364    -0.25800
N1716       N  0.48071246  0.69413028  0.74447223     0.01300
C1717       C  0.08738069  0.77084363  0.63666343     0.42700
C1718       C  0.06217743  0.73634785  0.81979103    -0.07000
N1719       N  0.46854996  0.81750960  0.74893920    -0.25800
H1720       H  0.05997367  0.83992484  0.79628137     0.06800
N1721       N  0.07578909  0.74710576  0.65471231    -0.47000
H1722       H  0.06840110  0.71299495  0.82449795     0.06800
C1723       C  0.43411371  0.74800392  0.83000561     0.42500
C1724       C  0.07452205  0.68238262  0.70760089    -0.06500
Co1725     Co  0.51166396  0.71925529  0.77173041     0.73800
N1726       N  0.05422672  0.78652907  0.82473075    -0.46700
C1727       C  0.44127903  0.75648005  0.64044102     0.42800
N1728       N  0.46039961  0.67245936  0.75508606    -0.46700
Co1729     Co  0.50347790  0.79689890  0.77588353     0.73900
C1730       C  0.44130210  0.82886399  0.75833553    -0.07000
C1731       C  0.06975033  0.79719372  0.64754184    -0.06600
N1732       N  0.48257574  0.69622676  0.71348241    -0.26100
N1733       N  0.06569979  0.85192246  0.71921930    -0.46900
H1734       H  0.44426250  0.80861590  0.64829291     0.06800
C1735       C  0.45179496  0.72350806  0.81574138    -0.07000
Cl1736     Cl  0.51103273  0.76213552  0.73340117    -0.50000
C1737       C  0.07199347  0.76403193  0.83618264     0.42500
H1738       H  0.45945693  0.67013558  0.67744990     0.06800
N1739       N  0.44732236  0.77455362  0.81814966    -0.46700
C1740       C  0.23026303  0.87115464  0.58408344     0.80200
N1741       N  0.19818849  0.87074161  0.58807780    -0.78200
C1742       C  0.18358989  0.88808886  0.60948893     0.82600
N1743       N  0.20192819  0.90634913  0.62696481    -0.78100
C1744       C  0.23380786  0.90825505  0.62383984     0.82700
N1745       N  0.24856955  0.89057087  0.60189651    -0.79800
C1746       C  0.23942080  0.64335442  0.57911809     0.80200
N1747       N  0.26011216  0.62725469  0.59713397    -0.78200
C1748       C  0.24873579  0.61289287  0.62451654     0.82600
N1749       N  0.21823663  0.61615684  0.63305605    -0.78100
C1750       C  0.19695093  0.62478357  0.61231485     0.82700
N1751       N  0.20772727  0.63912979  0.58525420    -0.79800
C1752       C  0.26988790  0.63944470  0.89837819     0.80200
N1753       N  0.27385689  0.63008320  0.86784614    -0.78200
C1754       C  0.27157145  0.59935957  0.86136943     0.82600
N1755       N  0.26362298  0.57902155  0.88519359    -0.78100
C1756       C  0.25922013  0.58843887  0.91513975     0.82700
N1757       N  0.26249743  0.61841295  0.92136359    -0.79800
C1758       C  0.25578756  0.92899795  0.86025492     0.80200
N1759       N  0.27297802  0.90488714  0.87083455    -0.78200
C1760       C  0.26412023  0.89062101  0.89919104     0.82600
N1761       N  0.23852718  0.90000149  0.91497228    -0.78100
C1762       C  0.21990462  0.92090836  0.90288487     0.82700
N1763       N  0.22871671  0.93541294  0.87580693    -0.79800
N1764       N  0.14615450  0.54332492  0.54622669    -0.36700
N1765       N  0.08341009  0.98787568  0.57883434    -0.57200
N1766       N  0.10975549  0.93234694  0.54740820    -0.36700
N1767       N  0.16438473  0.97133276  0.02192836    -0.57200
C1768       C  0.11517915  0.53857046  0.55357931     0.26900
C1769       C  0.15457775  0.53538941  0.01942332     0.26900
C1770       C  0.07951417  0.93094453  0.55717104     0.26900
C1771       C  0.11354741  0.92686511  0.01596600     0.26900
C1772       C  0.08270468  0.51430733  0.59556969     0.35500
C1773       C  0.06936913  0.96562818  0.59722556     0.35500
C1774       C  0.18527682  0.49160524  0.01209805     0.35500
C1775       C  0.16867382  0.94360855  0.01011128     0.35500
C1776       C  0.09969056  0.52833788  0.52727919    -0.22000
C1777       C  0.12694660  0.52796746  0.00447069    -0.22000
C1778       C  0.06028261  0.92308547  0.53278471    -0.22000
C1779       C  0.08367972  0.92042631  0.00489641    -0.22000
C1780       C  0.07097398  0.50856249  0.62588864    -0.23000
C1781       C  0.05727235  0.97870869  0.62418965    -0.23000
C1782       C  0.20753735  0.47444430  0.99709989    -0.23000
C1783       C  0.19870178  0.94314276  0.99639175    -0.23000
C1784       C  0.10222338  0.53937459  0.58462647    -0.18400
C1785       C  0.18370962  0.52373700  0.01094242    -0.18400
C1786       C  0.14221810  0.92713647  0.99877597    -0.18400
C1787       C  0.07097423  0.93436860  0.58894045    -0.18400
H1788       H  0.07516931  0.52122881  0.52586790     0.14500
H1789       H  0.12516625  0.51816183  0.98162379     0.14500
H1790       H  0.03502181  0.91925597  0.53394538     0.14500
H1791       H  0.07779365  0.91386819  0.98140215     0.14500
H1792       H  0.07105939  0.52422568  0.64520083     0.12800
H1793       H  0.04295865  0.96788612  0.64280189     0.12800
H1794       H  0.22926309  0.48269787  0.98549607     0.12800
H1795       H  0.20802607  0.92510675  0.98236961     0.12800
H1796       H  0.16435469  0.54798486  0.56126416     0.26100
H1797       H  0.12891017  0.93714738  0.56160717     0.26100
C1798       C  0.09565306  0.88589257  0.75959085     0.80200
N1799       N  0.12036184  0.90212126  0.74441810    -0.78200
C1800       C  0.13611320  0.92480809  0.76048284     0.82600
N1801       N  0.12786496  0.92936143  0.79096448    -0.78100
C1802       C  0.10388419  0.91370665  0.80592836     0.82700
N1803       N  0.08808656  0.89236725  0.78988349    -0.79800
C1804       C  0.39294700  0.59137203  0.72019471     0.80200
N1805       N  0.40552787  0.62052777  0.71639601    -0.78200
C1806       C  0.43204637  0.62866523  0.73227745     0.82600
N1807       N  0.44252757  0.60921293  0.75474751    -0.78100
C1808       C  0.43001782  0.58037078  0.75801231     0.82700
N1809       N  0.40673775  0.57145023  0.73945498    -0.79800
C1810       C  0.10180115  0.63912536  0.74360403     0.80200
N1811       N  0.12869255  0.62877827  0.72872212    -0.78200
C1812       C  0.14070319  0.60135991  0.73896169     0.82600
N1813       N  0.12640721  0.58591970  0.76342761    -0.78100
C1814       C  0.10146142  0.59655254  0.77866156     0.82700
N1815       N  0.08924175  0.62299237  0.76895812    -0.79800
C1816       C  0.38544187  0.92030172  0.74578928     0.80200
N1817       N  0.39831464  0.92628306  0.77412058    -0.78200
C1818       C  0.42237509  0.91033866  0.78491333     0.82600
N1819       N  0.43332424  0.88783010  0.76796721    -0.78100
C1820       C  0.42037688  0.87919048  0.74094104     0.82700
N1821       N  0.39558221  0.89533036  0.72928812    -0.79800
N1822       N  0.44414525  0.98162714  0.90911436    -0.36700
N1823       N  0.00210219  0.92069821  0.91766971    -0.57200
N1824       N  0.04128545  0.99007664  0.91102771    -0.36700
N1825       N  0.99078242  0.53469962  0.89780189    -0.57200
C1826       C  0.42895075  0.95397030  0.91169226     0.26900
C1827       C  0.42826698  0.50452324  0.89610848     0.26900
C1828       C  0.05555694  0.97267258  0.93227590     0.26900
C1829       C  0.05377395  0.51974362  0.91174177     0.26900
C1830       C  0.47229818  0.92517610  0.93093561     0.35500
C1831       C  0.02287945  0.92969820  0.93922059     0.35500
C1832       C  0.46623842  0.54832172  0.88359872     0.35500
C1833       C  0.01620342  0.55216973  0.88787970     0.35500
C1834       C  0.39874964  0.95625528  0.90053587    -0.22000
C1835       C  0.39821229  0.49128748  0.89586052    -0.22000
C1836       C  0.07892563  0.98950221  0.94645073    -0.22000
C1837       C  0.07636236  0.52062279  0.93452593    -0.22000
C1838       C  0.47406409  0.93650754  0.96086977    -0.23000
C1839       C  0.00681104  0.93997927  0.96566540    -0.23000
C1840       C  0.47583265  0.57427768  0.86581998    -0.23000
C1841       C  0.00752369  0.57618718  0.86889428    -0.23000
C1842       C  0.44585335  0.92686398  0.91213653    -0.18400
C1843       C  0.43753989  0.53166479  0.87944402    -0.18400
C1844       C  0.04727968  0.54305462  0.89044767    -0.18400
C1845       C  0.05340975  0.94080104  0.93028449    -0.18400
H1846       H  0.38140806  0.93813852  0.89697711     0.14500
H1847       H  0.37747717  0.50120488  0.88637488     0.14500
H1848       H  0.09395828  0.98093422  0.96422362     0.14500
H1849       H  0.09158818  0.53994718  0.94025299     0.14500
H1850       H  0.45502059  0.94507518  0.97508679     0.12800
H1851       H  0.01705837  0.95160000  0.98534246     0.12800
H1852       H  0.46189925  0.58800949  0.85052857     0.12800
H1853       H  0.02279225  0.59314851  0.85662378     0.12800
H1854       H  0.46802679  0.98506517  0.91273358     0.26100
H1855       H  0.02414972  0.98236114  0.89572878     0.26100
C1856       C  0.16272597  0.94549522  0.74814309     0.42400
N1857       N  0.19692300  0.98330924  0.75192442     0.01300
C1858       C  0.28953507  0.56768640  0.64517764    -0.06600
H1859       H  0.30305960  0.93803676  0.64161682     0.06800
C1860       C  0.34368219  0.95793868  0.76267475    -0.06900
Co1861     Co  0.22177985  0.51154137  0.69343537     0.74200
N1862       N  0.27589805  0.97091946  0.66754740    -0.26100
Co1863     Co  0.30424778  0.50789109  0.68882387     0.74100
C1864       C  0.35764060  0.93938391  0.73837338     0.42500
N1865       N  0.27828494  0.98325330  0.79908150     0.00900
N1866       N  0.32875727  0.97412526  0.71725032     0.01000
N1867       N  0.23755923  0.56570036  0.65327393    -0.47000
H1868       H  0.16711060  0.94835054  0.69377838     0.06800
N1869       N  0.24513064  0.97330735  0.67130635     0.01300
N1870       N  0.33047909  0.54263912  0.71005014     0.01000
C1871       C  0.35938770  0.58370711  0.71718000     0.42600
N1872       N  0.24744109  0.98436344  0.79796026    -0.25600
C1873       C  0.18042383  0.57035742  0.70411828    -0.06500
N1874       N  0.17795961  0.96394171  0.76823222    -0.46700
N1875       N  0.34971829  0.56335272  0.69560579    -0.46900
C1876       C  0.17233726  0.58955700  0.73113846     0.42400
N1877       N  0.24973082  0.54184465  0.66628692     0.01300
N1878       N  0.25122170  0.55306362  0.79498466    -0.25600
N1879       N  0.19545386  0.97946371  0.72143218    -0.26100
N1880       N  0.28200253  0.55172980  0.79529436     0.00900
H1881       H  0.21826553  0.57914210  0.82145374     0.06800
H1882       H  0.34616263  0.58192342  0.77010650     0.06800
N1883       N  0.28057108  0.54201392  0.66283934    -0.26100
N1884       N  0.32700481  0.97872223  0.74791487    -0.25800
N1885       N  0.20290695  0.55273199  0.74522330     0.01300
C1886       C  0.24845266  0.93296798  0.64308699     0.42700
C1887       C  0.23469096  0.96152065  0.81577991    -0.07000
N1888       N  0.32765772  0.54699472  0.74056183    -0.25800
H1889       H  0.34737136  0.95717055  0.78775726     0.06800
N1890       N  0.22875231  0.95167942  0.65753924    -0.47000
H1891       H  0.20984502  0.95700873  0.81989621     0.06800
C1892       C  0.27121379  0.58760315  0.82851193     0.42500
C1893       C  0.17419080  0.95614716  0.71647299    -0.06500
Co1894     Co  0.22363100  0.51931574  0.77319657     0.73800
N1895       N  0.28743452  0.96116321  0.81866397    -0.46700
C1896       C  0.26004212  0.58384511  0.63910082     0.42800
N1897       N  0.18752867  0.57639637  0.75541680    -0.46700
Co1898     Co  0.30486458  0.01490683  0.77012415     0.73900
C1899       C  0.34309273  0.57317821  0.74674862    -0.07000
C1900       C  0.28048928  0.94582458  0.64963123    -0.06600
N1901       N  0.19966663  0.54870729  0.71494279    -0.26100
N1902       N  0.34785921  0.95129598  0.71036517    -0.46900
H1903       H  0.31344477  0.57502924  0.63915495     0.06800
C1904       C  0.24235584  0.57490008  0.81474797    -0.07000
Cl1905     Cl  0.26334564  0.51334229  0.73186639    -0.50000
C1906       C  0.26079825  0.94586892  0.82969206     0.42500
H1907       H  0.17193885  0.57192355  0.68049152     0.06800
N1908       N  0.29461294  0.57097307  0.81580721    -0.46700
C1909       C  0.41025817  0.89786342  0.84042213    -0.05800
C1910       C  0.43140519  0.91118572  0.81770070     0.00100
C1911       C  0.46240216  0.91915789  0.82609501    -0.08500
C1912       C  0.46821245  0.92241258  0.85807220    -0.05900
C1913       C  0.44584082  0.91181401  0.88131160     0.00100
C1914       C  0.41850110  0.89554170  0.87209202    -0.08400
C1915       C  0.39923860  0.87506558  0.89535550     0.62000
H1916       H  0.38811680  0.88783726  0.83289709     0.12700
H1917       H  0.48961803  0.93437087  0.86470107     0.12700
C1918       C  0.48914894  0.92255863  0.80173813     0.62200
F1919       F  0.39118548  0.89025356  0.92234934    -0.23000
F1920       F  0.41696846  0.85054950  0.90378958    -0.20300
F1921       F  0.37181050  0.86389412  0.88225769    -0.20000
F1922       F  0.48168541  0.94247937  0.77776757    -0.20000
F1923       F  0.49444454  0.89436092  0.78905728    -0.20300
F1924       F  0.51682391  0.93308999  0.81476119    -0.23000
C1925       C  0.06976879  0.55606239  0.80542601    -0.05800
C1926       C  0.09079430  0.58087958  0.80778475     0.00100
C1927       C  0.10520124  0.58683649  0.83668751    -0.08500
C1928       C  0.09378210  0.57053418  0.86387808    -0.05900
C1929       C  0.06855270  0.54913394  0.86227976     0.00100
C1930       C  0.05955304  0.53897097  0.83217118    -0.08400
C1931       C  0.04030435  0.50972543  0.82787854     0.62000
H1932       H  0.06149594  0.55010170  0.78238233     0.12700
H1933       H  0.10362032  0.57519666  0.88645496     0.12700
C1934       C  0.13191865  0.61072144  0.83843223     0.62200
F1935       F  0.00944721  0.51341642  0.83662060    -0.23000
F1936       F  0.04164368  0.50072567  0.79689349    -0.20300
F1937       F  0.05202170  0.48656013  0.84587518    -0.20000
F1938       F  0.12185951  0.63888707  0.82836514    -0.20000
F1939       F  0.15696408  0.60274284  0.81939965    -0.20300
F1940       F  0.14250053  0.61349648  0.86869164    -0.23000
C1941       C  0.40860962  0.57520611  0.81139344    -0.05800
C1942       C  0.42949518  0.56458006  0.78857029     0.00100
C1943       C  0.44329280  0.53634416  0.79336828    -0.08500
C1944       C  0.43929466  0.52168531  0.82309387    -0.05900
C1945       C  0.42382166  0.53606231  0.84803112     0.00100
C1946       C  0.40549710  0.56118160  0.84123128    -0.08400
C1947       C  0.38511503  0.57597882  0.86515258     0.62000
H1948       H  0.39547288  0.59539537  0.80623985     0.12700
H1949       H  0.45121713  0.50082276  0.82815469     0.12700
C1950       C  0.46341535  0.52314090  0.76772001     0.62200
F1951       F  0.35434057  0.57508474  0.85550248    -0.23000
F1952       F  0.39585700  0.60583381  0.86651313    -0.20300
F1953       F  0.38591167  0.56238382  0.89479574    -0.20000
F1954       F  0.47509162  0.49574479  0.77730681    -0.20000
F1955       F  0.48844359  0.54328778  0.76005760    -0.20300
F1956       F  0.44587592  0.51816264  0.74128960    -0.23000
C1957       C  0.09514191  0.94849431  0.88694984    -0.05800
C1958       C  0.07216799  0.92857628  0.90226907     0.00100
C1959       C  0.06636040  0.89992375  0.88803523    -0.08500
C1960       C  0.07688143  0.89617986  0.85659031    -0.05900
C1961       C  0.09519437  0.91896186  0.83961946     0.00100
C1962       C  0.10489851  0.94562383  0.85550817    -0.08400
C1963       C  0.12351922  0.97236830  0.83938752     0.62000
H1964       H  0.10432119  0.96805769  0.89888077     0.12700
H1965       H  0.07114390  0.87475419  0.84543139     0.12700
C1966       C  0.05202868  0.87186749  0.90538580     0.62200
F1967       F  0.12626633  0.99753907  0.85835448    -0.23000
F1968       F  0.10886578  0.98171136  0.81237560    -0.20300
F1969       F  0.15341304  0.96366709  0.83171597    -0.20000
F1970       F  0.02193388  0.86575533  0.89513932    -0.20000
F1971       F  0.05129899  0.87518071  0.93763365    -0.20300
F1972       F  0.06995694  0.84689172  0.89913197    -0.23000
C1973       C  0.14954769  0.94911491  0.94573255    -0.05800
C1974       C  0.14264782  0.92243255  0.96428840     0.00100
C1975       C  0.15125769  0.89415826  0.95242166    -0.08500
C1976       C  0.17387554  0.89446892  0.92806679    -0.05900
C1977       C  0.18789206  0.92214790  0.91620673     0.00100
C1978       C  0.17322730  0.94969996  0.92214819    -0.08400
C1979       C  0.18559108  0.98006740  0.90812016     0.62000
H1980       H  0.14269295  0.97065212  0.95482198     0.12700
H1981       H  0.18303672  0.87295694  0.92078934     0.12700
C1982       C  0.13973914  0.86353295  0.96629553     0.62200
F1983       F  0.16513403  0.00286771  0.91463039    -0.23000
F1984       F  0.18856582  0.97878869  0.87588492    -0.20300
F1985       F  0.21464481  0.98763553  0.92017901    -0.20000
F1986       F  0.11695340  0.86623412  0.98963164    -0.20000
F1987       F  0.16471189  0.84846265  0.97866059    -0.18800
F1988       F  0.12692832  0.84614055  0.94272925    -0.23000
C1989       C  0.19098964  0.54849142  0.95852418    -0.05800
C1990       C  0.20391533  0.54142359  0.98758683     0.00100
C1991       C  0.23546539  0.55036216  0.99322551    -0.08500
C1992       C  0.25391813  0.56400864  0.96825377    -0.05900
C1993       C  0.24126400  0.56911208  0.93845217     0.00100
C1994       C  0.20903177  0.56215721  0.93374295    -0.08400
C1995       C  0.19336172  0.56995931  0.90297202     0.62000
H1996       H  0.16644200  0.54303153  0.95521519     0.12700
H1997       H  0.27805541  0.57150448  0.97198228     0.12700
C1998       C  0.24864716  0.54704958  0.02587705     0.62200
F1999       F  0.16111736  0.56468783  0.90503117    -0.23000
F2000       F  0.20512616  0.55217076  0.87930743    -0.20300
F2001       F  0.19895318  0.60052427  0.89501195    -0.20000
F2002       F  0.25028639  0.51648783  0.03424825    -0.20000
F2003       F  0.27847965  0.56058939  0.02740295    -0.20300
F2004       F  0.22928761  0.56098335  0.04742396    -0.23000
C2005       C  0.11264778  0.59111801  0.60646871    -0.05800
C2006       C  0.11899785  0.55967636  0.60685271     0.00100
C2007       C  0.14834280  0.55072554  0.61752674    -0.08500
C2008       C  0.17290293  0.57279958  0.61643542    -0.05900
C2009       C  0.16801231  0.60429736  0.61269614     0.00100
C2010       C  0.13675813  0.61372824  0.61138592    -0.08400
C2011       C  0.12923319  0.64684689  0.61569518     0.62000
H2012       H  0.08932927  0.59786288  0.60056643     0.12700
H2013       H  0.19646023  0.56498365  0.61661410     0.12700
C2014       C  0.15486584  0.51764386  0.62608678     0.62200
F2015       F  0.09710814  0.65050268  0.61772460    -0.23000
F2016       F  0.14181644  0.66465610  0.59085794    -0.20300
F2017       F  0.14202760  0.65695128  0.64333879    -0.20000
F2018       F  0.15048068  0.49889565  0.60074417    -0.20000
F2019       F  0.13485417  0.50768815  0.65065243    -0.20300
F2020       F  0.18537005  0.51463839  0.63589572    -0.23000
C2021       C  0.09368816  0.88284121  0.59575904    -0.05800
C2022       C  0.08557884  0.91037440  0.61006885     0.00100
C2023       C  0.10449800  0.91901871  0.63508047    -0.08500
C2024       C  0.13618866  0.91086681  0.63460664    -0.05900
C2025       C  0.14813591  0.89054968  0.61229187     0.00100
C2026       C  0.12546967  0.87427359  0.59413656    -0.08400
C2027       C  0.13453914  0.85088329  0.57035339     0.62000
H2028       H  0.07712093  0.87298669  0.57958606     0.12700
H2029       H  0.15121401  0.91959814  0.65266169     0.12700
C2030       C  0.08976953  0.92769047  0.66595034     0.62200
F2031       F  0.10856676  0.83635940  0.55752520    -0.23000
F2032       F  0.15203037  0.82868406  0.58440892    -0.20300
F2033       F  0.15161795  0.86574457  0.54613462    -0.20000
F2034       F  0.05739930  0.92350080  0.66611411    -0.20000
F2035       F  0.09816081  0.95751096  0.67279671    -0.20300
F2036       F  0.10029220  0.90864562  0.68911954    -0.23000
C2037       C  0.37039691  0.63333692  0.92001271    -0.05800
C2038       C  0.38058102  0.62887054  0.95077776     0.00100
C2039       C  0.38209518  0.65555697  0.96847266    -0.08500
C2040       C  0.39464306  0.68209571  0.95332992    -0.05900
C2041       C  0.39479933  0.68455438  0.92030956     0.00100
C2042       C  0.37700110  0.66181582  0.90404362    -0.08400
C2043       C  0.36689082  0.66662730  0.87036261     0.62000
H2044       H  0.35989443  0.61410805  0.90826910     0.12700
H2045       H  0.40110527  0.70177234  0.96709256     0.12700
C2046       C  0.36275046  0.65785786  0.99865438     0.62200
F2047       F  0.39284021  0.66752919  0.85002930    -0.23000
F2048       F  0.35154217  0.69377032  0.86753966    -0.20300
F2049       F  0.34648320  0.64328551  0.86131207    -0.20000
F2050       F  0.36219315  0.68770781  0.00858029    -0.20000
F2051       F  0.37455841  0.64031993  0.02240992    -0.20300
F2052       F  0.33214383  0.64777975  0.99356183    -0.23000
C2053       C  0.01542501  0.67685754  0.94632384    -0.05800
C2054       C  0.03182774  0.65058453  0.93865623     0.00100
C2055       C  0.06366740  0.65396789  0.92857567    -0.08500
C2056       C  0.07837883  0.68297522  0.92748244    -0.05900
C2057       C  0.06157276  0.70926414  0.93252445     0.00100
C2058       C  0.02955852  0.70637057  0.94243537    -0.08400
C2059       C  0.00934918  0.73375203  0.94639058     0.62000
H2060       H  0.99107435  0.67428107  0.95438017     0.12700
H2061       H  0.10248333  0.68530919  0.91845541     0.12700
C2062       C  0.08168857  0.62910448  0.91339133     0.62200
F2063       F  0.98605782  0.72774977  0.96932985    -0.23000
F2064       F  0.99529234  0.74022825  0.91819007    -0.20300
F2065       F  0.02707832  0.75908772  0.95527538    -0.20000
F2066       F  0.06659207  0.60086112  0.91623143    -0.20000
F2067       F  0.11100296  0.62724776  0.92639715    -0.20300
F2068       F  0.08523321  0.63673029  0.88177983    -0.23000
C2069       C  0.41877988  0.66961313  0.57440283    -0.05800
C2070       C  0.39704826  0.66860312  0.59942789     0.00100
C2071       C  0.38691364  0.64056073  0.61359399    -0.08500
C2072       C  0.39878480  0.61346155  0.60144382    -0.05900
C2073       C  0.42082419  0.61434821  0.57609452     0.00100
C2074       C  0.43167041  0.64337253  0.56266568    -0.08400
C2075       C  0.45503754  0.64949587  0.53513204     0.62000
H2076       H  0.42610098  0.69173063  0.56396152     0.12700
H2077       H  0.39073676  0.59142360  0.61134484     0.12700
C2078       C  0.36348315  0.63979954  0.64087296     0.62200
F2079       F  0.47609699  0.67301323  0.54215862    -0.23000
F2080       F  0.43921960  0.65856932  0.50893441    -0.20300
F2081       F  0.47235954  0.62518484  0.52724925    -0.20000
F2082       F  0.33575441  0.65212917  0.63138417    -0.20000
F2083       F  0.37544640  0.65665053  0.66524762    -0.20300
F2084       F  0.35698398  0.61034451  0.65183480    -0.23000
C2085       C  0.08231973  0.67192831  0.54828720    -0.05800
C2086       C  0.06450526  0.69265093  0.56502475     0.00100
C2087       C  0.03616406  0.68168474  0.58063253    -0.08500
C2088       C  0.02701639  0.65059217  0.57802276    -0.05900
C2089       C  0.04598542  0.62912142  0.56297894     0.00100
C2090       C  0.07498944  0.64066572  0.54842390    -0.08400
C2091       C  0.09912271  0.62216771  0.53108853     0.62000
H2092       H  0.10382389  0.67978854  0.53592111     0.12700
H2093       H  0.00394876  0.64355169  0.58687275     0.12700
C2094       C  0.01503982  0.70214738  0.59967049     0.62200
F2095       F  0.12889823  0.62889780  0.54183390    -0.23000
F2096       F  0.09911074  0.62950720  0.49926263    -0.20300
F2097       F  0.09350878  0.59149126  0.53522970    -0.20000
F2098       F  0.00899692  0.72829117  0.58232259    -0.20000
F2099       F  0.02939758  0.70987950  0.62721942    -0.20300
F2100       F  0.98642233  0.68778761  0.60824045    -0.23000
C2101       C  0.74988803  0.16291838  0.04894539     0.42400
N2102       N  0.74292341  0.19581660  0.01097546     0.01300
C2103       C  0.84609378  0.29373963  0.42660276    -0.06600
H2104       H  0.84627648  0.30979964  0.05814385     0.06800
C2105       C  0.71937378  0.33860693  0.03446596    -0.06900
Co2106     Co  0.80504074  0.22609907  0.48690959     0.74200
N2107       N  0.82130927  0.28136668  0.02465086    -0.26100
Co2108     Co  0.79983798  0.30850589  0.98891707     0.74100
C2109       C  0.74065920  0.35402203  0.05534097     0.42500
N2110       N  0.69152602  0.27218749  0.00861069     0.00900
N2111       N  0.76699254  0.32827431  0.02094101     0.01000
N2112       N  0.84791325  0.24294953  0.43251082    -0.47000
H2113       H  0.80360638  0.17398282  0.04712302     0.06800
N2114       N  0.82000095  0.25133381  0.02139946     0.01300
N2115       N  0.78153240  0.33019969  0.44972575     0.01000
C2116       C  0.77198984  0.35608088  0.40656302     0.42600
N2117       N  0.69327553  0.24217349  0.00812108    -0.25600
C2118       C  0.79988191  0.18262024  0.42774545    -0.06500
N2119       N  0.72823651  0.17567532  0.03056980    -0.46700
N2120       N  0.79385156  0.35085032  0.42879544    -0.46900
C2121       C  0.77446677  0.16953332  0.40850450     0.42400
N2122       N  0.83243268  0.25430169  0.45622858     0.01300
N2123       N  0.70326386  0.24380857  0.44027826    -0.25600
N2124       N  0.77352741  0.19785233  0.01494984    -0.26100
N2125       N  0.70167302  0.27373326  0.44018317     0.00900
H2126       H  0.67663116  0.20892490  0.41678139     0.06800
H2127       H  0.72196189  0.33439024  0.40644907     0.06800
N2128       N  0.83114976  0.28436453  0.45410478    -0.26100
N2129       N  0.73707488  0.32381532  0.01420787    -0.25800
N2130       N  0.75585380  0.19983750  0.44415181     0.01300
C2131       C  0.84902843  0.25693977  0.06244171     0.42700
C2132       C  0.67335630  0.22985796  0.03004072    -0.07000
N2133       N  0.75205125  0.32278386  0.44392820    -0.25800
H2134       H  0.69423597  0.33908188  0.03379343     0.06800
N2135       N  0.83562796  0.23678307  0.04295401    -0.47000
H2136       H  0.66856051  0.20564262  0.03423001     0.06800
C2137       C  0.66725195  0.25939506  0.40586388     0.42500
C2138       C  0.78035849  0.17791807  0.03861027    -0.06500
Co2139     Co  0.72524613  0.22007635  0.47653433     0.73800
N2140       N  0.67048107  0.28130432  0.02961353    -0.46700
C2141       C  0.85756950  0.26566920  0.41228663     0.42800
N2142       N  0.74796074  0.18111396  0.42126893    -0.46700
Co2143     Co  0.71881837  0.29940192  0.97682817     0.73900
C2144       C  0.74511405  0.33545293  0.41631317    -0.07000
C2145       C  0.83951758  0.28730269  0.05010100    -0.06600
N2146       N  0.78636658  0.20115887  0.44868894    -0.26100
N2147       N  0.77040880  0.34684892  0.04552716    -0.46900
H2148       H  0.84692544  0.31677983  0.41683266     0.06800
C2149       C  0.68311936  0.23288462  0.41912247    -0.07000
Cl2150     Cl  0.76034207  0.26423368  0.98172316    -0.50000
C2151       C  0.65856538  0.25577371  0.04458687     0.42500
H2152       H  0.82432507  0.17699793  0.42745053     0.06800
N2153       N  0.67991829  0.28371379  0.42094826    -0.46700
C2154       C  0.62747018  0.25301029  0.05987750     0.80200
N2155       N  0.61995628  0.26797132  0.08670224    -0.78200
C2156       C  0.59200402  0.26065048  0.10200635     0.82600
N2157       N  0.57333220  0.23743709  0.09132679    -0.78100
C2158       C  0.58125709  0.22167785  0.06568790     0.82700
N2159       N  0.60829163  0.23007856  0.05004207    -0.79800
C2160       C  0.86968603  0.24403919  0.08735572     0.80200
N2161       N  0.86882506  0.21296900  0.08778842    -0.78200
C2162       C  0.88752232  0.19648275  0.10589009     0.82600
N2163       N  0.90793695  0.21131652  0.12401511    -0.78100
C2164       C  0.91060131  0.24221194  0.12452268     0.82700
N2165       N  0.89164636  0.25942217  0.10540639    -0.79800
C2166       C  0.58984638  0.25827668  0.36481045     0.80200
N2167       N  0.62099915  0.26510748  0.37046502    -0.78200
C2168       C  0.63315011  0.25697029  0.39899005     0.82600
N2169       N  0.61454133  0.24106684  0.42047117    -0.78100
C2170       C  0.58412403  0.23360714  0.41478411     0.82700
N2171       N  0.57223362  0.24198669  0.38683462    -0.79800
C2172       C  0.90385158  0.24570072  0.34175750     0.80200
N2173       N  0.89113518  0.21703983  0.33986902    -0.78200
C2174       C  0.86603896  0.20763441  0.35779795     0.82600
N2175       N  0.85032073  0.22897819  0.37347859    -0.78100
C2176       C  0.86415683  0.25671672  0.37931802     0.82700
N2177       N  0.89188236  0.26511212  0.36360035    -0.79800
N2178       N  0.97600771  0.10278415  0.43576253    -0.36700
N2179       N  0.92859341  0.08474045  0.00241006    -0.57200
N2180       N  0.98294509  0.06804371  0.04577501    -0.36700
N2181       N  0.53655048  0.11285193  0.99087198    -0.57200
C2182       C  0.95159898  0.11350456  0.41972438     0.26900
C2183       C  0.49236195  0.11479216  0.43592386     0.26900
C2184       C  0.96023772  0.07296505  0.06738878     0.26900
C2185       C  0.50783045  0.08319074  0.06280695     0.26900
C2186       C  0.90881262  0.09926000  0.46002533     0.35500
C2187       C  0.91591715  0.07511668  0.03048751     0.35500
C2188       C  0.53309493  0.09875622  0.47004734     0.35500
C2189       C  0.53512892  0.09016153  0.01266491     0.35500
C2190       C  0.96336485  0.13180219  0.39446730    -0.22000
C2191       C  0.48043230  0.13218946  0.41216938    -0.22000
C2192       C  0.97375302  0.07757469  0.09634043    -0.22000
C2193       C  0.50273145  0.08699792  0.09478175    -0.22000
C2194       C  0.87779081  0.09930662  0.47095935    -0.23000
C2195       C  0.88376882  0.07039376  0.02758312    -0.23000
C2196       C  0.52727460  0.06750421  0.47349596    -0.23000
C2197       C  0.52727927  0.06242908  0.99930659    -0.23000
C2198       C  0.91931348  0.11115073  0.42972260    -0.18400
C2199       C  0.52339300  0.11788815  0.44605724    -0.18400
C2200       C  0.53353740  0.09679813  0.04470374    -0.18400
C2201       C  0.93005220  0.08243258  0.05917324    -0.18400
H2202       H  0.95018166  0.14452795  0.37754993     0.14500
H2203       H  0.49340869  0.14691835  0.39516892     0.14500
H2204       H  0.96183810  0.08418651  0.11778423     0.14500
H2205       H  0.51987207  0.09498081  0.11138465     0.14500
H2206       H  0.85734323  0.10392227  0.45728245     0.12800
H2207       H  0.86664300  0.06574893  0.04653936     0.12800
H2208       H  0.51700240  0.05226816  0.45669878     0.12800
H2209       H  0.52248263  0.04066984  0.01143660     0.12800
H2210       H  0.97449554  0.08965162  0.45635762     0.26100
H2211       H  0.97892664  0.06745128  0.02180285     0.26100
C2212       C  0.58365714  0.16502130  0.23680447     0.42400
N2213       N  0.54752733  0.19781819  0.24724098     0.01300
C2214       C  0.95252674  0.28258452  0.15210799    -0.06600
H2215       H  0.57008576  0.31815420  0.13624587     0.06800
C2216       C  0.56015201  0.34038351  0.27043141    -0.06900
Co2217     Co  0.01509604  0.22138074  0.19332898     0.74200
N2218       N  0.54901207  0.28452121  0.16930335    -0.26100
Co2219     Co  0.01184979  0.30257928  0.19308677     0.74100
C2220       C  0.57763241  0.35960044  0.24736653     0.42500
N2221       N  0.53888175  0.27275760  0.30163444     0.00900
N2222       N  0.54364417  0.32995856  0.22410740     0.01000
N2223       N  0.95712119  0.23165364  0.15494754    -0.47000
H2224       H  0.57819010  0.17377620  0.18331229     0.06800
N2225       N  0.55213757  0.25468187  0.17199984     0.01300
N2226       N  0.97567041  0.32330178  0.21864979     0.01000
C2227       C  0.93530564  0.34947206  0.23338358     0.42600
N2228       N  0.54112591  0.24303726  0.29862809    -0.25600
C2229       C  0.95989280  0.17141781  0.20750931    -0.06500
N2230       N  0.56620469  0.17762135  0.25991873    -0.46700
N2231       N  0.95452881  0.34284179  0.20850975    -0.46900
C2232       C  0.94670177  0.15618015  0.23642562     0.42400
N2233       N  0.98010832  0.24543567  0.16993747     0.01300
N2234       N  0.97690883  0.23822852  0.29775994    -0.25600
N2235       N  0.55034197  0.19944756  0.21629618    -0.26100
N2236       N  0.97435412  0.26812697  0.29854572     0.00900
H2237       H  0.94882811  0.20058669  0.31802815     0.06800
H2238       H  0.94149536  0.33331420  0.28477891     0.06800
N2239       N  0.97824662  0.27556658  0.16889782    -0.26100
N2240       N  0.53960776  0.32387391  0.25456045    -0.25800
N2241       N  0.98079121  0.19145580  0.24839709     0.01300
C2242       C  0.58596482  0.26833811  0.13501167     0.42700
C2243       C  0.56387217  0.23339983  0.31721519    -0.07000
N2244       N  0.97334184  0.31802040  0.24927837    -0.25800
H2245       H  0.56088870  0.34072283  0.29583084     0.06800
N2246       N  0.57422078  0.24479676  0.15311063    -0.47000
H2247       H  0.56979590  0.20980440  0.32085910     0.06800
C2248       C  0.93492319  0.25016099  0.32610201     0.42500
C2249       C  0.57255766  0.17951784  0.20736551    -0.06500
Co2250     Co  0.01329505  0.21772930  0.27324934     0.73800
N2251       N  0.55870042  0.28387074  0.32273149    -0.46700
C2252       C  0.93834154  0.25291391  0.14284453     0.42800
N2253       N  0.96137309  0.16962909  0.26055146    -0.46700
Co2254     Co  0.00831922  0.29593706  0.27507717     0.73900
C2255       C  0.94800025  0.33193664  0.26008472    -0.07000
C2256       C  0.56922841  0.29513974  0.14614222    -0.06600
N2257       N  0.98089412  0.19280747  0.21739295    -0.26100
N2258       N  0.56572090  0.35242648  0.21866363    -0.46900
H2259       H  0.94449171  0.30535049  0.14759137     0.06800
C2260       C  0.95307714  0.22496579  0.31452435    -0.07000
Cl2261     Cl  0.01208506  0.25935793  0.23367757    -0.50000
C2262       C  0.57637085  0.26053456  0.33293407     0.42500
H2263       H  0.95625173  0.16556576  0.18326149     0.06800
N2264       N  0.94935287  0.27646294  0.31525673    -0.46700
C2265       C  0.72842274  0.37413307  0.08092794     0.80200
N2266       N  0.69622838  0.37388259  0.08490922    -0.78200
C2267       C  0.68185935  0.39149930  0.10637177     0.82600
N2268       N  0.70038935  0.40978358  0.12355042    -0.78100
C2269       C  0.73217685  0.41148706  0.12042699     0.82700
N2270       N  0.74681720  0.39352712  0.09868838    -0.79800
C2271       C  0.74032863  0.14186913  0.07634862     0.80200
N2272       N  0.76106257  0.12498531  0.09369266    -0.78200
C2273       C  0.74984454  0.11010984  0.12094142     0.82600
N2274       N  0.71949721  0.11355217  0.12984622    -0.78100
C2275       C  0.69803616  0.12336883  0.10986186     0.82700
N2276       N  0.70864858  0.13812431  0.08297531    -0.79800
C2277       C  0.77336981  0.13728378  0.39799614     0.80200
N2278       N  0.77617902  0.12845956  0.36711343    -0.78200
C2279       C  0.77050384  0.09818785  0.35977219     0.82600
N2280       N  0.76041501  0.07803146  0.38302891    -0.78100
C2281       C  0.75720231  0.08703027  0.41321714     0.82700
N2282       N  0.76379268  0.11634624  0.42031388    -0.79800
C2283       C  0.75353037  0.42588125  0.35846238     0.80200
N2284       N  0.77157659  0.40236490  0.36900323    -0.78200
C2285       C  0.76275265  0.38732279  0.39697558     0.82600
N2286       N  0.73646836  0.39555128  0.41250159    -0.78100
C2287       C  0.71732733  0.41613895  0.40062631     0.82700
N2288       N  0.72602165  0.43119463  0.37380514    -0.79800
N2289       N  0.64953999  0.04136024  0.04983398    -0.36700
N2290       N  0.58269879  0.48907209  0.07659527    -0.57200
N2291       N  0.60733911  0.43338470  0.04647055    -0.36700
N2292       N  0.66052615  0.47233344  0.51652397    -0.57200
C2293       C  0.61789334  0.03869935  0.05425555     0.26900
C2294       C  0.65576063  0.03483759  0.52138636     0.26900
C2295       C  0.57716412  0.43167833  0.05643380     0.26900
C2296       C  0.61109940  0.42641333  0.51323123     0.26900
C2297       C  0.58250344  0.01510181  0.09373153     0.35500
C2298       C  0.56812955  0.46751276  0.09551928     0.35500
C2299       C  0.68780756  0.99181725  0.51442527     0.35500
C2300       C  0.66523206  0.44461196  0.50483689     0.35500
C2301       C  0.60421716  0.02887972  0.02686189    -0.22000
C2302       C  0.62770626  0.02581560  0.50814299    -0.22000
C2303       C  0.55780145  0.42316889  0.03238774    -0.22000
C2304       C  0.58088738  0.41867790  0.50394775    -0.22000
C2305       C  0.56605390  0.01043887  0.12206419    -0.23000
C2306       C  0.55785523  0.48103576  0.12292987    -0.23000
C2307       C  0.71020667  0.97503296  0.49913111    -0.23000
C2308       C  0.69544816  0.44412975  0.49169879    -0.23000
C2309       C  0.60215920  0.04049922  0.08382923    -0.18400
C2310       C  0.68495806  0.02377653  0.51216762    -0.18400
C2311       C  0.63909920  0.42657984  0.49514574    -0.18400
C2312       C  0.56884821  0.43604313  0.08801405    -0.18400
H2313       H  0.57961406  0.02316755  0.02339985     0.14500
H2314       H  0.62526296  0.01535684  0.48572011     0.14500
H2315       H  0.53256418  0.41913054  0.03373892     0.14500
H2316       H  0.57407147  0.41121354  0.48108645     0.14500
H2317       H  0.56207105  0.02714038  0.13994806     0.12800
H2318       H  0.54435550  0.47056870  0.14233174     0.12800
H2319       H  0.73131705  0.98369480  0.48667454     0.12800
H2320       H  0.70532531  0.42591546  0.47835445     0.12800
H2321       H  0.66652154  0.04493388  0.06644396     0.26100
H2322       H  0.62653347  0.43873174  0.06043739     0.26100
C2323       C  0.59437514  0.38792575  0.25858188     0.80200
N2324       N  0.61919561  0.40391460  0.24339904    -0.78200
C2325       C  0.63463844  0.42700303  0.25909107     0.82600
N2326       N  0.62603884  0.43230162  0.28928671    -0.78100
C2327       C  0.60206144  0.41689090  0.30437813     0.82700
N2328       N  0.58646273  0.39497774  0.28871872    -0.79800
C2329       C  0.89211804  0.08891098  0.22334248     0.80200
N2330       N  0.90578153  0.11766990  0.22031408    -0.78200
C2331       C  0.92953005  0.12607605  0.23990247     0.82600
N2332       N  0.93611555  0.10722902  0.26474390    -0.78100
C2333       C  0.92246402  0.07867750  0.26708699     0.82700
N2334       N  0.90251072  0.06940908  0.24527302    -0.79800
C2335       C  0.59878626  0.13474504  0.24282771     0.80200
N2336       N  0.62585383  0.12501890  0.22773620    -0.78200
C2337       C  0.63822355  0.09749148  0.23715386     0.82600
N2338       N  0.62399240  0.08120969  0.26112075    -0.78100
C2339       C  0.59886708  0.09114225  0.27673701     0.82700
N2340       N  0.58645691  0.11787421  0.26787188    -0.79800
C2341       C  0.88666105  0.42023975  0.24310684     0.80200
N2342       N  0.89997085  0.42892673  0.27045252    -0.78200
C2343       C  0.92510334  0.41508015  0.28193660     0.82600
N2344       N  0.93684190  0.39176651  0.26655566    -0.78100
C2345       C  0.92401410  0.38074533  0.24033071     0.82700
N2346       N  0.89790393  0.39467286  0.22828039    -0.79800
N2347       N  0.95313463  0.48287868  0.41071655    -0.36700
N2348       N  0.50294901  0.42041279  0.41736981    -0.57200
N2349       N  0.53904213  0.49171295  0.41214645    -0.36700
N2350       N  0.49466358  0.03727492  0.40066446    -0.57200
C2351       C  0.93606244  0.45644270  0.41533784     0.26900
C2352       C  0.91930098  0.98766497  0.39697966     0.26900
C2353       C  0.55404151  0.47420250  0.43276108     0.26900
C2354       C  0.55652601  0.01817625  0.41396769     0.26900
C2355       C  0.97764248  0.42391317  0.42894642     0.35500
C2356       C  0.52388409  0.42941024  0.43883568     0.35500
C2357       C  0.95365666  0.03510435  0.38779500     0.35500
C2358       C  0.52096809  0.05337190  0.39087896     0.35500
C2359       C  0.90455662  0.46148542  0.41111532    -0.22000
C2360       C  0.89241536  0.97007217  0.39142190    -0.22000
C2361       C  0.57566280  0.49164743  0.44872076    -0.22000
C2362       C  0.57906154  0.01823211  0.43680912    -0.22000
C2363       C  0.98153937  0.43338463  0.45941352    -0.23000
C2364       C  0.50816048  0.43712512  0.46642175    -0.23000
C2365       C  0.96023150  0.06232339  0.37102412    -0.23000
C2366       C  0.51375025  0.07755774  0.37130932    -0.23000
C2367       C  0.95019069  0.42826106  0.41196098    -0.18400
C2368       C  0.92699477  0.01595710  0.38156266    -0.18400
C2369       C  0.55112169  0.04181326  0.39259774    -0.18400
C2370       C  0.55356611  0.44245387  0.42974619    -0.18400
H2371       H  0.88533792  0.44474073  0.41160233     0.14500
H2372       H  0.87310664  0.97577649  0.37696936     0.14500
H2373       H  0.59080168  0.48324568  0.46657186     0.14500
H2374       H  0.59484245  0.03709051  0.44266152     0.14500
H2375       H  0.96347611  0.44097738  0.47549430     0.12800
H2376       H  0.51829818  0.44839825  0.48634820     0.12800
H2377       H  0.94423772  0.07569617  0.35764538     0.12800
H2378       H  0.52995371  0.09332893  0.35856501     0.12800
H2379       H  0.97759702  0.48440390  0.40872950     0.26100
H2380       H  0.52289593  0.48392635  0.39582378     0.26100
C2381       C  0.66194627  0.44669989  0.24701864     0.42400
N2382       N  0.69662259  0.48390996  0.25131290     0.01300
C2383       C  0.79069678  0.06499308  0.14288030    -0.06600
H2384       H  0.80148650  0.43974301  0.13909404     0.06800
C2385       C  0.84174808  0.45393399  0.26072627    -0.06900
Co2386     Co  0.72210195  0.00953710  0.19175308     0.74200
N2387       N  0.77478593  0.47220574  0.16604117    -0.26100
Co2388     Co  0.80491465  0.00549517  0.18777938     0.74100
C2389       C  0.85672648  0.43653009  0.23592347     0.42500
N2390       N  0.77747847  0.48116196  0.29832235     0.00900
N2391       N  0.82793917  0.47223152  0.21574471     0.01000
N2392       N  0.73868234  0.06301379  0.15011710    -0.47000
H2393       H  0.66587756  0.45042348  0.19268236     0.06800
N2394       N  0.74409509  0.47518404  0.16976791     0.01300
N2395       N  0.83119319  0.04038294  0.20900238     0.01000
C2396       C  0.85899582  0.08212739  0.21653911     0.42600
N2397       N  0.74674990  0.48339240  0.29749661    -0.25600
C2398       C  0.67947464  0.06797953  0.20245456    -0.06500
N2399       N  0.67755607  0.46451217  0.26736939    -0.46700
N2400       N  0.85102222  0.06092816  0.19503525    -0.46900
C2401       C  0.67044696  0.08676841  0.22947121     0.42400
N2402       N  0.75061683  0.03954442  0.16413908     0.01300
N2403       N  0.75042061  0.05213233  0.29316804    -0.25600
N2404       N  0.69487524  0.48061513  0.22074666    -0.26100
N2405       N  0.78116957  0.05099348  0.29348901     0.00900
H2406       H  0.71726997  0.07783983  0.31978373     0.06800
H2407       H  0.84149678  0.08242872  0.26812160     0.06800
N2408       N  0.78152883  0.03960212  0.16102840    -0.26100
N2409       N  0.82564742  0.47561438  0.24659482    -0.25800
N2410       N  0.70244490  0.05103661  0.24338611     0.01300
C2411       C  0.74690202  0.43585036  0.13998409     0.42700
C2412       C  0.73327304  0.46087579  0.31527147    -0.07000
N2413       N  0.82656765  0.04572183  0.23910037    -0.25800
H2414       H  0.84527812  0.45240241  0.28581280     0.06800
N2415       N  0.72741605  0.45444916  0.15497823    -0.47000
H2416       H  0.70830326  0.45716598  0.31943361     0.06800
C2417       C  0.77015945  0.08689163  0.32669081     0.42500
C2418       C  0.67328126  0.45770220  0.21546412    -0.06500
Co2419     Co  0.72332722  0.01805205  0.27156357     0.73800
N2420       N  0.78595809  0.45845486  0.31751368    -0.46700
C2421       C  0.76122887  0.08093418  0.13566163     0.42800
N2422       N  0.68603446  0.07402100  0.25367122    -0.46700
Co2423     Co  0.80494053  0.51237391  0.26976349     0.73900
C2424       C  0.84025886  0.07275891  0.24499762    -0.07000
C2425       C  0.77903541  0.44770220  0.14724633    -0.06600
N2426       N  0.69951798  0.04691742  0.21307675    -0.26100
N2427       N  0.84751960  0.44991201  0.20830129    -0.46900
H2428       H  0.81471865  0.07234983  0.13716235     0.06800
C2429       C  0.74138905  0.07390413  0.31294085    -0.07000
Cl2430     Cl  0.76350759  0.01152787  0.23020466    -0.50000
C2431       C  0.75887290  0.44408237  0.32868122     0.42500
H2432       H  0.67057338  0.06921892  0.17913960     0.06800
N2433       N  0.79362636  0.07038124  0.31393132    -0.46700
C2434       C  0.91111360  0.40669431  0.33743476    -0.05800
C2435       C  0.93355612  0.41800376  0.31486482     0.00100
C2436       C  0.96470754  0.42446943  0.32416825    -0.08500
C2437       C  0.97023696  0.42621742  0.35640760    -0.05900
C2438       C  0.94719368  0.41670618  0.37940817     0.00100
C2439       C  0.91837909  0.40359431  0.36927666    -0.08400
C2440       C  0.89561965  0.38468936  0.39059808     0.62000
H2441       H  0.88839594  0.39806690  0.32979102     0.12700
H2442       H  0.99254870  0.43613789  0.36326211     0.12700
C2443       C  0.99312045  0.42701753  0.30166002     0.62200
F2444       F  0.90575555  0.38241980  0.42116250    -0.23000
F2445       F  0.89273083  0.35545001  0.37907288    -0.20300
F2446       F  0.86627538  0.39716182  0.39077248    -0.20000
F2447       F  0.98555186  0.43286289  0.27075917    -0.20000
F2448       F  0.00853903  0.39984443  0.30307262    -0.20300
F2449       F  0.01363076  0.45015710  0.31063169    -0.23000
C2450       C  0.56835766  0.05087112  0.30616683    -0.05800
C2451       C  0.58982291  0.07562498  0.30661750     0.00100
C2452       C  0.60605702  0.08205156  0.33443225    -0.08500
C2453       C  0.59639191  0.06630826  0.36249514    -0.05900
C2454       C  0.57091726  0.04514226  0.36309231     0.00100
C2455       C  0.55941596  0.03454375  0.33392680    -0.08400
C2456       C  0.53884804  0.00565564  0.33165888     0.62000
H2457       H  0.55863408  0.04450897  0.28384730     0.12700
H2458       H  0.60704860  0.07194071  0.38445622     0.12700
C2459       C  0.63296665  0.10583595  0.33416272     0.62200
F2460       F  0.50964052  0.00912294  0.34527751    -0.23000
F2461       F  0.53475706  0.99759804  0.30072071    -0.20300
F2462       F  0.55293697  0.98185317  0.34659032    -0.20000
F2463       F  0.62267195  0.13381389  0.32385756    -0.20000
F2464       F  0.65706606  0.09702710  0.31439336    -0.20300
F2465       F  0.64506945  0.10940405  0.36358505    -0.23000
C2466       C  0.89538866  0.06105304  0.31657132    -0.05800
C2467       C  0.92187852  0.05982648  0.29602831     0.00100
C2468       C  0.94266565  0.03594871  0.29938715    -0.08500
C2469       C  0.93795562  0.01539033  0.32509443    -0.05900
C2470       C  0.91532669  0.02068166  0.34911091     0.00100
C2471       C  0.89172104  0.04162821  0.34338592    -0.08400
C2472       C  0.86297379  0.04285423  0.36525822     0.62000
H2473       H  0.87763357  0.07726823  0.31145117     0.12700
H2474       H  0.95521621  0.99840518  0.32949728     0.12700
C2475       C  0.97043659  0.03380477  0.27654916     0.62200
F2476       F  0.84458767  0.06692226  0.35775621    -0.23000
F2477       F  0.87166121  0.04581850  0.39618041    -0.20300
F2478       F  0.84437522  0.01658512  0.36257041    -0.20000
F2479       F  0.98823357  0.06093957  0.27622384    -0.20000
F2480       F  0.95980112  0.02857901  0.24662683    -0.20300
F2481       F  0.98975177  0.01057084  0.28467260    -0.23000
C2482       C  0.59278424  0.45322216  0.38471834    -0.05800
C2483       C  0.57212126  0.43176995  0.40107366     0.00100
C2484       C  0.56827289  0.40252097  0.38764682    -0.08500
C2485       C  0.57777508  0.39897449  0.35594974    -0.05900
C2486       C  0.59399578  0.42248507  0.33812115     0.00100
C2487       C  0.60265786  0.44996316  0.35332510    -0.08400
C2488       C  0.62029847  0.47698632  0.33656530     0.62000
H2489       H  0.60006848  0.47394906  0.39598638     0.12700
H2490       H  0.57317803  0.37705434  0.34531361     0.12700
C2491       C  0.55687532  0.37387040  0.40593887     0.62200
F2492       F  0.62296574  0.50237176  0.35527118    -0.23000
F2493       F  0.60470678  0.48563075  0.30986630    -0.20300
F2494       F  0.65032622  0.46908041  0.32826241    -0.20000
F2495       F  0.52696832  0.36516535  0.39687679    -0.20000
F2496       F  0.55682561  0.37767992  0.43807001    -0.20300
F2497       F  0.57677560  0.35042153  0.39949643    -0.23000
C2498       C  0.64462975  0.44439803  0.44091743    -0.05800
C2499       C  0.63892709  0.41898474  0.46136702     0.00100
C2500       C  0.64913399  0.39039315  0.45188196    -0.08500
C2501       C  0.67215849  0.38997079  0.42793936    -0.05900
C2502       C  0.68541166  0.41736921  0.41451159     0.00100
C2503       C  0.66973825  0.44481814  0.41883166    -0.08400
C2504       C  0.68244308  0.47527043  0.40536744     0.62000
H2505       H  0.63562176  0.46590864  0.44803198     0.12700
H2506       H  0.68213696  0.36834641  0.42224742     0.12700
C2507       C  0.63854115  0.36040439  0.46779651     0.62200
F2508       F  0.66172996  0.49799003  0.41124768    -0.23000
F2509       F  0.68667326  0.47427110  0.37327791    -0.20300
F2510       F  0.71089447  0.48283778  0.41869716    -0.20000
F2511       F  0.61536775  0.36400425  0.49057316    -0.20000
F2512       F  0.66391976  0.34709489  0.48146156    -0.18800
F2513       F  0.62659969  0.34094995  0.44549630    -0.23000
C2514       C  0.69014911  0.04711479  0.45890432    -0.05800
C2515       C  0.70397415  0.04131292  0.48783168     0.00100
C2516       C  0.73547891  0.05107051  0.49240077    -0.08500
C2517       C  0.75306095  0.06406702  0.46662021    -0.05900
C2518       C  0.73963073  0.06805748  0.43706680     0.00100
C2519       C  0.70738896  0.06044874  0.43331725    -0.08400
C2520       C  0.69087441  0.06749738  0.40290514     0.62000
H2521       H  0.66559175  0.04092654  0.45641103     0.12700
H2522       H  0.77721147  0.07200391  0.46951167     0.12700
C2523       C  0.74964736  0.04927616  0.52470390     0.62200
F2524       F  0.65871911  0.06215108  0.40608040    -0.23000
F2525       F  0.70203059  0.04931591  0.37925804    -0.20300
F2526       F  0.69619695  0.09792068  0.39426931    -0.20000
F2527       F  0.75263402  0.01910083  0.53393651    -0.20000
F2528       F  0.77906573  0.06389347  0.52496980    -0.20300
F2529       F  0.73036387  0.06323574  0.54628568    -0.23000
C2530       C  0.61236069  0.09359168  0.10215682    -0.05800
C2531       C  0.61663491  0.06192681  0.10652677     0.00100
C2532       C  0.64434583  0.05299842  0.12069066    -0.08500
C2533       C  0.67017842  0.07344070  0.11863536    -0.05900
C2534       C  0.66771695  0.10470996  0.11123389     0.00100
C2535       C  0.63730777  0.11548756  0.10679252    -0.08400
C2536       C  0.63130556  0.14915966  0.10838613     0.62000
H2537       H  0.59009273  0.10086262  0.09365522     0.12700
H2538       H  0.69273796  0.06417008  0.12159700     0.12700
C2539       C  0.64745879  0.02168359  0.13600738     0.62200
F2540       F  0.59950682  0.15427763  0.10764976    -0.23000
F2541       F  0.64656795  0.16500486  0.08360022    -0.20300
F2542       F  0.64235310  0.16023558  0.13638573    -0.20000
F2543       F  0.64175363  0.99860567  0.11507743    -0.20000
F2544       F  0.62615601  0.01904476  0.16105148    -0.20300
F2545       F  0.67714184  0.01791411  0.14769171    -0.23000
C2546       C  0.59129658  0.38460780  0.09669118    -0.05800
C2547       C  0.58348403  0.41279144  0.10980561     0.00100
C2548       C  0.60335786  0.42273644  0.13348137    -0.08500
C2549       C  0.63538881  0.41626658  0.13099854    -0.05900
C2550       C  0.64648158  0.39417612  0.11005498     0.00100
C2551       C  0.62302579  0.37573552  0.09516724    -0.08400
C2552       C  0.63094181  0.34849591  0.07588585     0.62000
H2553       H  0.57427398  0.37363033  0.08172186     0.12700
H2554       H  0.65114390  0.42685659  0.14737944     0.12700
C2555       C  0.58992474  0.42913131  0.16560498     0.62200
F2556       F  0.60423313  0.33177546  0.06769900    -0.23000
F2557       F  0.64959221  0.32930405  0.09286244    -0.20300
F2558       F  0.64638179  0.35871866  0.04853508    -0.20000
F2559       F  0.55747465  0.42564869  0.16683847    -0.20000
F2560       F  0.59909238  0.45813042  0.17467842    -0.20300
F2561       F  0.60108630  0.40798329  0.18647863    -0.23000
C2562       C  0.88585779  0.12678451  0.38372193    -0.05800
C2563       C  0.89862548  0.13320133  0.41345539     0.00100
C2564       C  0.89814146  0.16351511  0.42434739    -0.08500
C2565       C  0.88520574  0.18575654  0.40561436    -0.05900
C2566       C  0.87172774  0.17975204  0.37667472     0.00100
C2567       C  0.87218697  0.14989558  0.36504186    -0.08400
C2568       C  0.86045805  0.14254685  0.33257032     0.62000
H2569       H  0.88833638  0.10427205  0.37433187     0.12700
H2570       H  0.88815146  0.20912702  0.41245477     0.12700
C2571       C  0.91333300  0.17358942  0.45460099     0.62200
F2572       F  0.88551961  0.13503100  0.31334713    -0.23000
F2573       F  0.84556863  0.16654883  0.31841005    -0.20300
F2574       F  0.83890731  0.11836246  0.33475270    -0.20000
F2575       F  0.94436199  0.16561212  0.45484130    -0.20000
F2576       F  0.89694190  0.16026589  0.48007947    -0.20300
F2577       F  0.91316993  0.20493637  0.45823364    -0.23000
C2578       C  0.52386168  0.17525879  0.44854318    -0.05800
C2579       C  0.54020869  0.14850199  0.44245762     0.00100
C2580       C  0.57244438  0.15114389  0.43370508    -0.08500
C2581       C  0.58687209  0.18021797  0.42982237    -0.05900
C2582       C  0.56949188  0.20661819  0.43134193     0.00100
C2583       C  0.53768008  0.20448768  0.44178154    -0.08400
C2584       C  0.51878629  0.23280252  0.44618377     0.62000
H2585       H  0.49972825  0.17303673  0.45725188     0.12700
H2586       H  0.61124246  0.18242565  0.42181085     0.12700
C2587       C  0.59010847  0.12377353  0.42339539     0.62200
F2588       F  0.48872115  0.22558327  0.45804003    -0.23000
F2589       F  0.51607576  0.24831639  0.41777103    -0.20300
F2590       F  0.53376554  0.25180171  0.46708313    -0.20000
F2591       F  0.59340663  0.10300146  0.44786915    -0.20000
F2592       F  0.61988312  0.13195482  0.41163286    -0.20300
F2593       F  0.57316861  0.11035295  0.39995836    -0.23000
C2594       C  0.91687777  0.16715165  0.06897179    -0.05800
C2595       C  0.89635351  0.16645835  0.09503289     0.00100
C2596       C  0.88804504  0.13857817  0.11076437    -0.08500
C2597       C  0.89975212  0.11138401  0.09861311    -0.05900
C2598       C  0.92058331  0.11203033  0.07230177     0.00100
C2599       C  0.93047609  0.14088975  0.05794335    -0.08400
C2600       C  0.95374359  0.14626608  0.03018470     0.62000
H2601       H  0.92313615  0.18907252  0.05754942     0.12700
H2602       H  0.89277026  0.08946007  0.10948392     0.12700
C2603       C  0.86682676  0.13795925  0.13983160     0.62200
F2604       F  0.97223326  0.17246467  0.03447387    -0.23000
F2605       F  0.93767413  0.15033049  0.00281818    -0.20300
F2606       F  0.97388298  0.12307434  0.02606463    -0.20000
F2607       F  0.83841083  0.15034325  0.13271413    -0.20000
F2608       F  0.88089224  0.15482966  0.16308832    -0.20300
F2609       F  0.86101228  0.10851672  0.15129515    -0.23000
C2610       C  0.58440915  0.17102209  0.04198642    -0.05800
C2611       C  0.56641983  0.19088987  0.05993092     0.00100
C2612       C  0.53767209  0.17928613  0.07424338    -0.08500
C2613       C  0.52822564  0.14866199  0.06910024    -0.05900
C2614       C  0.54740457  0.12800203  0.05310714     0.00100
C2615       C  0.57679241  0.13982954  0.04008745    -0.08400
C2616       C  0.60139553  0.12128299  0.02352070     0.62000
H2617       H  0.60636722  0.17928885  0.03077214     0.12700
H2618       H  0.50495500  0.14123278  0.07706522     0.12700
C2619       C  0.51646677  0.19861246  0.09454176     0.62200
F2620       F  0.63056563  0.12718951  0.03607555    -0.23000
F2621       F  0.60311519  0.12938057  0.99188167    -0.20300
F2622       F  0.59514595  0.09049763  0.02665710    -0.20000
F2623       F  0.51012654  0.22545117  0.07852829    -0.20000
F2624       F  0.53083595  0.20514182  0.12244614    -0.20300
F2625       F  0.48801197  0.18368158  0.10258791    -0.23000
C2626       C  0.75214813  0.16275512  0.55144168     0.42400
N2627       N  0.74588817  0.19549264  0.51320376     0.01300
C2628       C  0.85072948  0.29789835  0.93338316    -0.06600
H2629       H  0.84680661  0.31253614  0.55748934     0.06800
C2630       C  0.72407384  0.33793982  0.53427930    -0.06900
Co2631     Co  0.80068835  0.22771812  0.98363514     0.74200
N2632       N  0.82416248  0.28167756  0.52465705    -0.26100
Co2633     Co  0.80310073  0.30710401  0.48744426     0.74100
C2634       C  0.74585254  0.35336364  0.55484114     0.42500
N2635       N  0.69451158  0.27203093  0.50894217     0.00900
N2636       N  0.77126092  0.32810643  0.51933282     0.01000
N2637       N  0.84020661  0.24817727  0.92696328    -0.47000
H2638       H  0.80585262  0.17353902  0.55051588     0.06800
N2639       N  0.82279832  0.25145258  0.52368939     0.01300
N2640       N  0.77784390  0.33246130  0.95138551     0.01000
C2641       C  0.76752005  0.35920062  0.90884240     0.42600
N2642       N  0.69639021  0.24200298  0.50908829    -0.25600
C2643       C  0.79623459  0.18535264  0.92524377    -0.06500
N2644       N  0.73082134  0.17544177  0.53264062    -0.46700
N2645       N  0.78961617  0.35393226  0.93095475    -0.46900
C2646       C  0.77104524  0.17059263  0.90730437     0.42400
N2647       N  0.82488556  0.25771709  0.95176939     0.01300
N2648       N  0.69935302  0.24539457  0.93999759    -0.25600
N2649       N  0.77639636  0.19747277  0.51783770    -0.26100
N2650       N  0.69809646  0.27536606  0.94032593     0.00900
H2651       H  0.67086137  0.21085398  0.91804411     0.06800
H2652       H  0.71787216  0.33673909  0.90847488     0.06800
N2653       N  0.82901917  0.28736874  0.95546331    -0.26100
N2654       N  0.74121295  0.32352838  0.51328691    -0.25800
N2655       N  0.75164124  0.20119297  0.94200121     0.01300
C2656       C  0.84956461  0.26006328  0.56547409     0.42700
C2657       C  0.67675487  0.23012614  0.53158686    -0.07000
N2658       N  0.74847803  0.32463829  0.94528232    -0.25800
H2659       H  0.69891373  0.33766009  0.53465041     0.06800
N2660       N  0.83725763  0.23841188  0.54697712    -0.47000
H2661       H  0.67233556  0.20597743  0.53657353     0.06800
C2662       C  0.66184885  0.26145995  0.90804563     0.42500
C2663       C  0.78275558  0.17764168  0.54169047    -0.06500
Co2664     Co  0.72173050  0.22098305  0.97516416     0.73800
N2665       N  0.67346962  0.28146542  0.52993596    -0.46700
C2666       C  0.85838459  0.27135368  0.91385936     0.42800
N2667       N  0.74408020  0.18137721  0.92000076    -0.46700
Co2668     Co  0.72231963  0.29846951  0.47637394     0.73900
C2669       C  0.74112339  0.33791344  0.91813440    -0.07000
C2670       C  0.84099198  0.28947562  0.55044978    -0.06600
N2671       N  0.78211992  0.20359588  0.94586471    -0.26100
N2672       N  0.77534669  0.34631199  0.54415961    -0.46900
H2673       H  0.85886721  0.32147508  0.93016669     0.06800
C2674       C  0.67793659  0.23471724  0.92002108    -0.07000
Cl2675     Cl  0.76389041  0.26285813  0.48202056    -0.50000
C2676       C  0.66177971  0.25622120  0.54581299     0.42500
H2677       H  0.82094106  0.18058637  0.92496474     0.06800
N2678       N  0.67541310  0.28566177  0.92246906    -0.46700
C2679       C  0.63074710  0.25312952  0.56208401     0.80200
N2680       N  0.62265966  0.26887244  0.58847383    -0.78200
C2681       C  0.59495603  0.26084472  0.60433652     0.82600
N2682       N  0.57742554  0.23639549  0.59472269    -0.78100
C2683       C  0.58598517  0.21991985  0.56990268     0.82700
N2684       N  0.61248647  0.22890870  0.55361030    -0.79800
C2685       C  0.86768412  0.24914640  0.59298681     0.80200
N2686       N  0.86329043  0.21853578  0.59771370    -0.78200
C2687       C  0.88320714  0.20174818  0.61394609     0.82600
N2688       N  0.90652514  0.21641388  0.62883653    -0.78100
C2689       C  0.91180852  0.24707960  0.62600263     0.82700
N2690       N  0.89307542  0.26396649  0.60650986    -0.79800
C2691       C  0.58575767  0.26366363  0.86626878     0.80200
N2692       N  0.61665145  0.26955959  0.87300121    -0.78200
C2693       C  0.62788325  0.25972516  0.90119119     0.82600
N2694       N  0.60864111  0.24259542  0.92124111    -0.78100
C2695       C  0.57813704  0.23628487  0.91451893     0.82700
N2696       N  0.56711464  0.24685256  0.88700061    -0.79800
C2697       C  0.91532709  0.24216261  0.85688333     0.80200
N2698       N  0.91519179  0.21416032  0.87142700    -0.78200
C2699       C  0.90461732  0.21066317  0.90157820     0.82600
N2700       N  0.89632609  0.23536745  0.91727363    -0.78100
C2701       C  0.88938204  0.26139738  0.90189148     0.82700
N2702       N  0.89949996  0.26530816  0.87101636    -0.79800
N2703       N  0.96580013  0.09754307  0.94614540    -0.36700
N2704       N  0.92779097  0.09524481  0.48485836    -0.57200
N2705       N  0.97581218  0.08783569  0.53609269    -0.36700
N2706       N  0.54269317  0.11071387  0.49687346    -0.57200
C2707       C  0.93807676  0.10723445  0.93580842     0.26900
C2708       C  0.48546191  0.11508930  0.93116409     0.26900
C2709       C  0.94941802  0.08892097  0.55383624     0.26900
C2710       C  0.51312259  0.08079842  0.56746103     0.26900
C2711       C  0.90528872  0.08592575  0.98152607     0.35500
C2712       C  0.90940167  0.09449479  0.51141315     0.35500
C2713       C  0.52742003  0.10031546  0.96411008     0.35500
C2714       C  0.54133690  0.08769902  0.51817403     0.35500
C2715       C  0.94468128  0.12562560  0.90896148    -0.22000
C2716       C  0.47245370  0.12926420  0.90577340    -0.22000
C2717       C  0.95723682  0.08828947  0.58544974    -0.22000
C2718       C  0.50713136  0.08423966  0.59935186    -0.22000
C2719       C  0.87708515  0.07664042  0.99649478    -0.23000
C2720       C  0.87830284  0.09710575  0.50337834    -0.23000
C2721       C  0.52154645  0.06911681  0.96831546    -0.23000
C2722       C  0.53322422  0.06023435  0.50431763    -0.23000
C2723       C  0.90822051  0.10250474  0.95235945    -0.18400
C2724       C  0.51692674  0.11872512  0.93976497    -0.18400
C2725       C  0.53966686  0.09401654  0.55020850    -0.18400
C2726       C  0.92050082  0.09879285  0.54239758    -0.18400
H2727       H  0.92942796  0.13712541  0.89378027     0.14500
H2728       H  0.48472877  0.14160082  0.88647973     0.14500
H2729       H  0.94139322  0.09071969  0.60549118     0.14500
H2730       H  0.52384495  0.09175614  0.61657935     0.14500
H2731       H  0.85385671  0.07731883  0.98681528     0.12800
H2732       H  0.85832437  0.09916133  0.51937094     0.12800
H2733       H  0.51115854  0.05356905  0.95190547     0.12800
H2734       H  0.52819607  0.03833381  0.51607508     0.12800
H2735       H  0.96923082  0.08447409  0.96623212     0.26100
H2736       H  0.97716815  0.09107778  0.51178749     0.26100
C2737       C  0.58472079  0.16687189  0.73808212     0.42400
N2738       N  0.54875505  0.19991372  0.74863772     0.01300
C2739       C  0.95513772  0.28677134  0.65041369    -0.06600
H2740       H  0.57100087  0.31924428  0.63702499     0.06800
C2741       C  0.55761215  0.34321108  0.77043521    -0.06900
Co2742     Co  0.01992837  0.22611227  0.68927310     0.74200
N2743       N  0.54884649  0.28582191  0.66974397    -0.26100
Co2744     Co  0.01236501  0.30655400  0.69283874     0.74100
C2745       C  0.57549057  0.36209596  0.74745486     0.42500
N2746       N  0.53762179  0.27606720  0.80166303     0.00900
N2747       N  0.54221850  0.33198758  0.72396950     0.01000
N2748       N  0.96254074  0.23624639  0.64914717    -0.47000
H2749       H  0.57840729  0.17499122  0.68464927     0.06800
N2750       N  0.55232365  0.25608560  0.67307358     0.01300
N2751       N  0.97372422  0.32473743  0.71720892     0.01000
C2752       C  0.93130050  0.34867560  0.73054932     0.42600
N2753       N  0.54116449  0.24648502  0.79893173    -0.25600
C2754       C  0.96539172  0.17469814  0.69659503    -0.06500
N2755       N  0.56752101  0.17972118  0.76128770    -0.46700
N2756       N  0.95285954  0.34444598  0.70688568    -0.46900
C2757       C  0.94935842  0.15846658  0.72350382     0.42400
N2758       N  0.98526919  0.25005140  0.66459581     0.01300
N2759       N  0.97268043  0.23594218  0.79297536    -0.25600
N2760       N  0.55117057  0.20114387  0.71767039    -0.26100
N2761       N  0.96912598  0.26561373  0.79480453     0.00900
H2762       H  0.94907665  0.19728590  0.81681072     0.06800
H2763       H  0.93320040  0.32800590  0.78078692     0.06800
N2764       N  0.98158726  0.27988676  0.66588991    -0.26100
N2765       N  0.53762014  0.32632734  0.75442256    -0.25800
N2766       N  0.98195409  0.19299712  0.74019213     0.01300
C2767       C  0.58762782  0.26956804  0.63705788     0.42700
C2768       C  0.56392525  0.23794697  0.81793653    -0.07000
N2769       N  0.96885238  0.31698880  0.74708393    -0.25800
H2770       H  0.55791862  0.34374564  0.79584103     0.06800
N2771       N  0.57544467  0.24629130  0.65538088    -0.47000
H2772       H  0.57048556  0.21462793  0.82223131     0.06800
C2773       C  0.93287055  0.24593484  0.82630800     0.42500
C2774       C  0.57323017  0.18109980  0.70868987    -0.06500
Co2775     Co  0.01161487  0.21796367  0.76910390     0.73800
N2776       N  0.55629363  0.28812462  0.82311820    -0.46700
C2777       C  0.94247320  0.25740186  0.63914596     0.42800
N2778       N  0.96164749  0.17078164  0.74951712    -0.46700
Co2779     Co  0.00310589  0.29562959  0.77421174     0.73900
C2780       C  0.94184556  0.32877891  0.75659406    -0.07000
C2781       C  0.56980720  0.29627740  0.64704472    -0.06600
N2782       N  0.98502153  0.19567247  0.70930884    -0.26100
N2783       N  0.56432521  0.35446100  0.71856529    -0.46900
H2784       H  0.94519905  0.30908353  0.64883291     0.06800
C2785       C  0.95061817  0.22162332  0.81168933    -0.07000
Cl2786     Cl  0.01188153  0.26149515  0.73137394    -0.50000
C2787       C  0.57454934  0.26562298  0.83383552     0.42500
H2788       H  0.96404932  0.17000591  0.67179107     0.06800
N2789       N  0.94622652  0.27260963  0.81496771    -0.46700
C2790       C  0.73375015  0.37293962  0.58111912     0.80200
N2791       N  0.70164065  0.37212989  0.58480701    -0.78200
C2792       C  0.68654174  0.38903768  0.60624001     0.82600
N2793       N  0.70430352  0.40726501  0.62412397    -0.78100
C2794       C  0.73607658  0.40971990  0.62145558     0.82700
N2795       N  0.75154607  0.39248390  0.59943133    -0.79800
C2796       C  0.74242180  0.14203372  0.57892492     0.80200
N2797       N  0.76320654  0.12596037  0.59679992    -0.78200
C2798       C  0.75221925  0.11225767  0.62466595     0.82600
N2799       N  0.72203197  0.11621902  0.63374114    -0.78100
C2800       C  0.70049985  0.12416610  0.61303122     0.82700
N2801       N  0.71081418  0.13789162  0.58546660    -0.79800
C2802       C  0.77193579  0.13812711  0.89834581     0.80200
N2803       N  0.77597728  0.12873132  0.86792717    -0.78200
C2804       C  0.77330414  0.09810933  0.86145706     0.82600
N2805       N  0.76479436  0.07781271  0.88521894    -0.78100
C2806       C  0.76038626  0.08725784  0.91519941     0.82700
N2807       N  0.76405807  0.11723229  0.92137944    -0.79800
C2808       C  0.74980516  0.43003463  0.86125217     0.80200
N2809       N  0.76763960  0.40639591  0.87203549    -0.78200
C2810       C  0.75758977  0.39030767  0.89907384     0.82600
N2811       N  0.73025332  0.39757877  0.91331113    -0.78100
C2812       C  0.71160695  0.41858042  0.90133684     0.82700
N2813       N  0.72153895  0.43474778  0.87553890    -0.79800
N2814       N  0.65029261  0.04364859  0.55088265    -0.36700
N2815       N  0.58418737  0.48741725  0.57569870    -0.57200
N2816       N  0.61042917  0.43351549  0.54371085    -0.36700
N2817       N  0.66054761  0.46952452  0.01985393    -0.57200
C2818       C  0.61909821  0.03886662  0.55745063     0.26900
C2819       C  0.65614411  0.03313342  0.02029369     0.26900
C2820       C  0.58041621  0.43068697  0.55400801     0.26900
C2821       C  0.60801607  0.42627615  0.01599318     0.26900
C2822       C  0.58568577  0.01470336  0.59858012     0.35500
C2823       C  0.57071986  0.46494379  0.59428224     0.35500
C2824       C  0.68693992  0.98952052  0.01227682     0.35500
C2825       C  0.66333427  0.44149964  0.00824194     0.35500
C2826       C  0.60448069  0.02783380  0.53100760    -0.22000
C2827       C  0.62844785  0.02595069  0.00524796    -0.22000
C2828       C  0.56114179  0.42149843  0.53014235    -0.22000
C2829       C  0.57763959  0.41958608  0.00641613    -0.22000
C2830       C  0.57284502  0.00888186  0.62845244    -0.23000
C2831       C  0.55915021  0.47765920  0.62163062    -0.23000
C2832       C  0.70876494  0.97253386  0.99638826    -0.23000
C2833       C  0.69314203  0.43946271  0.99443155    -0.23000
C2834       C  0.60530068  0.03985711  0.58810678    -0.18400
C2835       C  0.68538744  0.02168435  0.01153637    -0.18400
C2836       C  0.63603370  0.42564455  0.99796091    -0.18400
C2837       C  0.57244608  0.43375205  0.58588619    -0.18400
H2838       H  0.58011681  0.02044585  0.52899193     0.14500
H2839       H  0.62652241  0.01639554  0.98225682     0.14500
H2840       H  0.53609355  0.41630887  0.53181957     0.14500
H2841       H  0.57072257  0.41240262  0.98345736     0.14500
H2842       H  0.57199234  0.02456004  0.64772633     0.12800
H2843       H  0.54565606  0.46645216  0.64062026     0.12800
H2844       H  0.73009000  0.98090225  0.98411789     0.12800
H2845       H  0.70149525  0.42081455  0.98065396     0.12800
H2846       H  0.66805179  0.04871749  0.56581879     0.26100
H2847       H  0.62960998  0.43923934  0.55757576     0.26100
C2848       C  0.59305765  0.38983275  0.75893520     0.80200
N2849       N  0.61794575  0.40580165  0.74383351    -0.78200
C2850       C  0.63424937  0.42794064  0.76012057     0.82600
N2851       N  0.62627573  0.43237507  0.79066736    -0.78100
C2852       C  0.60194462  0.41721813  0.80548435     0.82700
N2853       N  0.58562184  0.39627512  0.78932566    -0.79800
C2854       C  0.89541726  0.09002975  0.71478165     0.80200
N2855       N  0.90733388  0.11948041  0.71153858    -0.78200
C2856       C  0.93575178  0.12693703  0.72431683     0.82600
N2857       N  0.94904319  0.10635728  0.74374860    -0.78100
C2858       C  0.93685247  0.07739824  0.74695188     0.82700
N2859       N  0.91147343  0.06922528  0.73080216    -0.79800
C2860       C  0.59942339  0.13626918  0.74377132     0.80200
N2861       N  0.62700821  0.12693401  0.72935975    -0.78200
C2862       C  0.63904039  0.09911164  0.73830876     0.82600
N2863       N  0.62394815  0.08207684  0.76123013    -0.78100
C2864       C  0.59814791  0.09149883  0.77617379     0.82700
N2865       N  0.58609197  0.11856684  0.76773149    -0.79800
C2866       C  0.88424843  0.41923122  0.74636297     0.80200
N2867       N  0.89693102  0.42478936  0.77487037    -0.78200
C2868       C  0.92165389  0.40941173  0.78515972     0.82600
N2869       N  0.93362020  0.38786561  0.76744473    -0.78100
C2870       C  0.92086448  0.37950812  0.74015426     0.82700
N2871       N  0.89536750  0.39511008  0.72910837    -0.79800
N2872       N  0.94535608  0.48351709  0.90991122    -0.36700
N2873       N  0.50215325  0.42224048  0.91735594    -0.57200
N2874       N  0.54001031  0.49270041  0.91030619    -0.36700
N2875       N  0.48774493  0.03371955  0.89784080    -0.57200
C2876       C  0.92935864  0.45628300  0.91274331     0.26900
C2877       C  0.93087005  0.00129988  0.88584198     0.26900
C2878       C  0.55336454  0.47556643  0.93244167     0.26900
C2879       C  0.55073651  0.01869364  0.91171289     0.26900
C2880       C  0.97205565  0.42682994  0.93123782     0.35500
C2881       C  0.52276148  0.43112148  0.93913643     0.35500
C2882       C  0.97090566  0.04408723  0.87518240     0.35500
C2883       C  0.51320014  0.05069592  0.88719344     0.35500
C2884       C  0.89931165  0.45909096  0.90167303    -0.22000
C2885       C  0.90179536  0.98724065  0.88089117    -0.22000
C2886       C  0.57433986  0.49320285  0.94899024    -0.22000
C2887       C  0.57316452  0.02066258  0.93465408    -0.22000
C2888       C  0.97435701  0.43854456  0.96100412    -0.23000
C2889       C  0.50663386  0.43945455  0.96627105    -0.23000
C2890       C  0.98175562  0.07032166  0.85849048    -0.23000
C2891       C  0.50454463  0.07413137  0.86743452    -0.23000
C2892       C  0.94545894  0.42888594  0.91278548    -0.18400
C2893       C  0.94258474  0.02767280  0.86892156    -0.18400
C2894       C  0.54409813  0.04114512  0.88949790    -0.18400
C2895       C  0.55266354  0.44368139  0.93028571    -0.18400
H2896       H  0.88173986  0.44108287  0.89860990     0.14500
H2897       H  0.88350320  0.99553544  0.86609048     0.14500
H2898       H  0.58783019  0.48523689  0.96835082     0.14500
H2899       H  0.58802792  0.04037390  0.93994947     0.14500
H2900       H  0.95556630  0.44732131  0.97541145     0.12800
H2901       H  0.51655214  0.45081182  0.98626168     0.12800
H2902       H  0.96910807  0.08449845  0.84248028     0.12800
H2903       H  0.51973724  0.09027691  0.85400042     0.12800
H2904       H  0.96934779  0.48645459  0.91335146     0.26100
H2905       H  0.52437874  0.48468683  0.89365990     0.26100
C2906       C  0.66105993  0.44826347  0.74788786     0.42400
N2907       N  0.69555142  0.48576146  0.75154817     0.01300
C2908       C  0.79189426  0.06598812  0.64510138    -0.06600
H2909       H  0.80392180  0.43988025  0.64162773     0.06800
C2910       C  0.84175187  0.45648735  0.76346988    -0.06900
Co2911     Co  0.72281545  0.01116409  0.69342163     0.74200
N2912       N  0.77565689  0.47173316  0.66768203    -0.26100
Co2913     Co  0.80528194  0.00639425  0.68873919     0.74100
C2914       C  0.85608930  0.43815472  0.73907871     0.42500
N2915       N  0.77582485  0.48405566  0.79974233     0.00900
N2916       N  0.82750330  0.47338365  0.71800491     0.01000
N2917       N  0.74000479  0.06542596  0.65362025    -0.47000
H2918       H  0.66631702  0.44983932  0.69355485     0.06800
N2919       N  0.74484256  0.47406136  0.67081361     0.01300
N2920       N  0.83192203  0.04121116  0.70912494     0.01000
C2921       C  0.86173304  0.08198356  0.71460923     0.42600
N2922       N  0.74513070  0.48685911  0.79867653    -0.25600
C2923       C  0.68037218  0.06950840  0.70399349    -0.06500
N2924       N  0.67614483  0.46689326  0.76791297    -0.46700
N2925       N  0.85077821  0.06161975  0.69373004    -0.46900
C2926       C  0.67138641  0.08847568  0.73091438     0.42400
N2927       N  0.75143551  0.04106266  0.66627514     0.01300
N2928       N  0.75289469  0.05333031  0.79418676    -0.25600
N2929       N  0.69455172  0.48123237  0.72109648    -0.26100
N2930       N  0.78369498  0.05169096  0.79448900     0.00900
H2931       H  0.72009829  0.07880063  0.82146198     0.06800
H2932       H  0.85118388  0.08048119  0.76817065     0.06800
N2933       N  0.78220898  0.04047282  0.66260474    -0.26100
N2934       N  0.82534499  0.47758719  0.74872513    -0.25800
N2935       N  0.70370334  0.05300526  0.74496137     0.01300
C2936       C  0.74949807  0.43447503  0.64146615     0.42700
C2937       C  0.73105967  0.46571981  0.81771220    -0.07000
N2938       N  0.83016168  0.04583135  0.73966973    -0.25800
H2939       H  0.84533847  0.45558275  0.78856981     0.06800
N2940       N  0.72908333  0.45273452  0.65586761    -0.47000
H2941       H  0.70604645  0.46291976  0.82198570     0.06800
C2942       C  0.77302228  0.08677738  0.82851542     0.42500
C2943       C  0.67313797  0.45805598  0.71621702    -0.06500
Co2944     Co  0.72471717  0.01979692  0.77296335     0.73800
N2945       N  0.78365991  0.46200598  0.82012876    -0.46700
C2946       C  0.76287973  0.08295634  0.63923007     0.42800
N2947       N  0.68707614  0.07590836  0.75518622    -0.46700
Co2948     Co  0.80402680  0.51456041  0.77050542     0.73900
C2949       C  0.84701377  0.07152807  0.74508226    -0.07000
C2950       C  0.78105671  0.44720057  0.64930344    -0.06600
N2951       N  0.70057776  0.04867173  0.71471493    -0.26100
N2952       N  0.84662026  0.45054154  0.71112388    -0.46900
H2953       H  0.81607797  0.07283407  0.63956184     0.06800
C2954       C  0.74414326  0.07477008  0.81441159    -0.07000
Cl2955     Cl  0.76447619  0.01293470  0.73167562    -0.50000
C2956       C  0.75612303  0.44891099  0.83193009     0.42500
H2957       H  0.67118940  0.07025228  0.68070714     0.06800
N2958       N  0.79637501  0.07032056  0.81551599    -0.46700
C2959       C  0.91109924  0.39624637  0.84083864    -0.05800
C2960       C  0.93117409  0.41054521  0.81786192     0.00100
C2961       C  0.96113071  0.42193281  0.82616798    -0.08500
C2962       C  0.96667563  0.42598674  0.85815371    -0.05900
C2963       C  0.94506060  0.41434165  0.88164136     0.00100
C2964       C  0.91862883  0.39636593  0.87268782    -0.08400
C2965       C  0.89783790  0.37731338  0.89573062     0.62000
H2966       H  0.88966808  0.38440146  0.83377349     0.12700
H2967       H  0.98729216  0.43929798  0.86475451     0.12700
C2968       C  0.98736512  0.42795551  0.80170000     0.62200
F2969       F  0.90745453  0.37957456  0.92643071    -0.23000
F2970       F  0.89882708  0.34698315  0.88754280    -0.20300
F2971       F  0.86710305  0.38624250  0.89423555    -0.20000
F2972       F  0.97681883  0.44429727  0.77621308    -0.20000
F2973       F  0.99771705  0.40031368  0.79129997    -0.20300
F2974       F  0.01265924  0.44397589  0.81394764    -0.23000
C2975       C  0.56472347  0.05185145  0.80363921    -0.05800
C2976       C  0.58780121  0.07511220  0.80526918     0.00100
C2977       C  0.60370655  0.07957653  0.83371389    -0.08500
C2978       C  0.59143772  0.06477939  0.86140942    -0.05900
C2979       C  0.56464567  0.04530287  0.86058348     0.00100
C2980       C  0.55419977  0.03534514  0.83080347    -0.08400
C2981       C  0.53385416  0.00646470  0.82733036     0.62000
H2982       H  0.55534177  0.04647890  0.78089332     0.12700
H2983       H  0.60139726  0.06974561  0.88394023     0.12700
C2984       C  0.63329542  0.09997347  0.83437047     0.62200
F2985       F  0.50395633  0.00989515  0.83922352    -0.23000
F2986       F  0.53174980  0.99852226  0.79613167    -0.20300
F2987       F  0.54698169  0.98256213  0.84314256    -0.20000
F2988       F  0.62727612  0.12905877  0.82332761    -0.20000
F2989       F  0.65656390  0.08790080  0.81574873    -0.20300
F2990       F  0.64468030  0.10223614  0.86422979    -0.23000
C2991       C  0.91854815  0.07394762  0.80076463    -0.05800
C2992       C  0.93791840  0.06179673  0.77741056     0.00100
C2993       C  0.94952375  0.03237793  0.78188586    -0.08500
C2994       C  0.94554848  0.01837940  0.81198747    -0.05900
C2995       C  0.93052308  0.03334733  0.83694730     0.00100
C2996       C  0.91391563  0.05965245  0.83022260    -0.08400
C2997       C  0.89304317  0.07473359  0.85373976     0.62000
H2998       H  0.90672481  0.09500606  0.79588047     0.12700
H2999       H  0.95642614  0.99686253  0.81676537     0.12700
C3000       C  0.96609171  0.01535949  0.75599344     0.62200
F3001       F  0.86298932  0.07567803  0.84230663    -0.23000
F3002       F  0.90468444  0.10414981  0.85729437    -0.20300
F3003       F  0.89141186  0.05973033  0.88274446    -0.20000
F3004       F  0.97181080  0.03276879  0.72875485    -0.20000
F3005       F  0.94767717  0.98997816  0.74859524    -0.20300
F3006       F  0.99475343  0.00618828  0.76631112    -0.23000
C3007       C  0.59235669  0.45343720  0.88561364    -0.05800
C3008       C  0.57123822  0.43235014  0.90186516     0.00100
C3009       C  0.56688554  0.40311942  0.88838718    -0.08500
C3010       C  0.57696745  0.39930865  0.85685575    -0.05900
C3011       C  0.59359024  0.42266888  0.83914725     0.00100
C3012       C  0.60192066  0.45024040  0.85418144    -0.08400
C3013       C  0.61875982  0.47748065  0.83709402     0.62000
H3014       H  0.60012967  0.47397130  0.89696982     0.12700
H3015       H  0.57226708  0.37743614  0.84615886     0.12700
C3016       C  0.55417180  0.37479259  0.90648216     0.62200
F3017       F  0.62027917  0.50319811  0.85536088    -0.23000
F3018       F  0.60316630  0.48509627  0.81005033    -0.20300
F3019       F  0.64915528  0.47045381  0.82930242    -0.20000
F3020       F  0.52388903  0.36751628  0.89745641    -0.20000
F3021       F  0.55447271  0.37842667  0.93864996    -0.20300
F3022       F  0.57275941  0.35039582  0.89982519    -0.23000
C3023       C  0.64126472  0.44684443  0.94484273    -0.05800
C3024       C  0.63518329  0.42033849  0.96371685     0.00100
C3025       C  0.64394994  0.39203843  0.95210749    -0.08500
C3026       C  0.66552918  0.39228038  0.92676732    -0.05900
C3027       C  0.67944698  0.41997617  0.91466793     0.00100
C3028       C  0.66520621  0.44770294  0.92150702    -0.08400
C3029       C  0.67862595  0.47847353  0.90940650     0.62000
H3030       H  0.63383047  0.46820587  0.95390704     0.12700
H3031       H  0.67473821  0.37075377  0.91949042     0.12700
C3032       C  0.63486611  0.36171861  0.96823384     0.62200
F3033       F  0.65895830  0.50167659  0.91707066    -0.23000
F3034       F  0.68206817  0.47893877  0.87715932    -0.20300
F3035       F  0.70763780  0.48435269  0.92233317    -0.20000
F3036       F  0.61245082  0.36451605  0.99196291    -0.20000
F3037       F  0.66127172  0.34934709  0.98085114    -0.18800
F3038       F  0.62267501  0.34188637  0.94641770    -0.23000
C3039       C  0.69233556  0.04750421  0.95952117    -0.05800
C3040       C  0.70561911  0.03965136  0.98820609     0.00100
C3041       C  0.73767588  0.04742928  0.99309575    -0.08500
C3042       C  0.75573049  0.06174588  0.96811586    -0.05900
C3043       C  0.74252953  0.06787778  0.93874997     0.00100
C3044       C  0.71019112  0.06113723  0.93454804    -0.08400
C3045       C  0.69426228  0.06871453  0.90393101     0.62000
H3046       H  0.66768393  0.04234422  0.95650494     0.12700
H3047       H  0.78008194  0.06872712  0.97144206     0.12700
C3048       C  0.75203542  0.04196474  0.02495558     0.62200
F3049       F  0.66206696  0.06315320  0.90636792    -0.23000
F3050       F  0.70596281  0.05087271  0.88027166    -0.20300
F3051       F  0.69962508  0.09927583  0.89578494    -0.20000
F3052       F  0.75129497  0.01109024  0.03250891    -0.20000
F3053       F  0.78302522  0.05272712  0.02534200    -0.20300
F3054       F  0.73515053  0.05687767  0.04778369    -0.23000
C3055       C  0.61585526  0.09156965  0.60953772    -0.05800
C3056       C  0.62166049  0.05999632  0.61065891     0.00100
C3057       C  0.65088517  0.05078480  0.62141666    -0.08500
C3058       C  0.67583168  0.07245930  0.61921115    -0.05900
C3059       C  0.67143857  0.10394169  0.61466538     0.00100
C3060       C  0.64046125  0.11386144  0.61356951    -0.08400
C3061       C  0.63402468  0.14730445  0.61679082     0.62000
H3062       H  0.59268405  0.09860873  0.60346047     0.12700
H3063       H  0.69914812  0.06416576  0.61827243     0.12700
C3064       C  0.65719661  0.01754391  0.62965629     0.62200
F3065       F  0.60211879  0.15205428  0.61778204    -0.23000
F3066       F  0.64794599  0.16408499  0.59186094    -0.20300
F3067       F  0.64644794  0.15759930  0.64453463    -0.20000
F3068       F  0.65381685  0.99924375  0.60380907    -0.20000
F3069       F  0.63641301  0.00703408  0.65335186    -0.20300
F3070       F  0.68732237  0.01446253  0.64045571    -0.23000
C3071       C  0.59699007  0.38286645  0.59181987    -0.05800
C3072       C  0.58825021  0.41007560  0.60645769     0.00100
C3073       C  0.60705638  0.41898302  0.63148754    -0.08500
C3074       C  0.63892270  0.41160558  0.63081925    -0.05900
C3075       C  0.65114853  0.39124351  0.60871001     0.00100
C3076       C  0.62883935  0.37456599  0.59060656    -0.08400
C3077       C  0.63844637  0.35102135  0.56725596     0.62000
H3078       H  0.58073465  0.37280788  0.57546737     0.12700
H3079       H  0.65377849  0.42073970  0.64887125     0.12700
C3080       C  0.59225824  0.42613749  0.66280921     0.62200
F3081       F  0.61280797  0.33572945  0.55468558    -0.23000
F3082       F  0.65643873  0.32941149  0.58166221    -0.20300
F3083       F  0.65519049  0.36597268  0.54287313    -0.20000
F3084       F  0.55998813  0.42100111  0.66300691    -0.20000
F3085       F  0.59964843  0.45591562  0.67064090    -0.20300
F3086       F  0.60371215  0.40671750  0.68526694    -0.23000
C3087       C  0.87303735  0.12839372  0.91458956    -0.05800
C3088       C  0.88262116  0.12430245  0.94564841     0.00100
C3089       C  0.88298503  0.15082968  0.96370621    -0.08500
C3090       C  0.89425797  0.17794510  0.94882121    -0.05900
C3091       C  0.89429151  0.18074986  0.91582487     0.00100
C3092       C  0.87758980  0.15743736  0.89932123    -0.08400
C3093       C  0.86600092  0.16241963  0.86627678     0.62000
H3094       H  0.86565542  0.10859398  0.90165663     0.12700
H3095       H  0.90004433  0.19759438  0.96288460     0.12700
C3096       C  0.86357871  0.15214690  0.99401290     0.62200
F3097       F  0.89102669  0.16428011  0.84484896    -0.23000
F3098       F  0.84976128  0.18914209  0.86468133    -0.20300
F3099       F  0.84578093  0.13866881  0.85786800    -0.20000
F3100       F  0.86004163  0.18200809  0.00311094    -0.20000
F3101       F  0.87732137  0.13662496  0.01810966    -0.20300
F3102       F  0.83394010  0.13912562  0.98956525    -0.23000
C3103       C  0.51762452  0.17575005  0.94431658    -0.05800
C3104       C  0.53308736  0.14940542  0.93496311     0.00100
C3105       C  0.56437180  0.15240332  0.92320448    -0.08500
C3106       C  0.57907461  0.18143651  0.92051643    -0.05900
C3107       C  0.56307968  0.20777168  0.92752288     0.00100
C3108       C  0.53199227  0.20518350  0.94009454    -0.08400
C3109       C  0.51457512  0.23319230  0.94950281     0.62000
H3110       H  0.49404104  0.17309306  0.95446849     0.12700
H3111       H  0.60263732  0.18407877  0.91027823     0.12700
C3112       C  0.58092114  0.12561124  0.90997458     0.62200
F3113       F  0.48562766  0.22543268  0.96376707    -0.23000
F3114       F  0.50961870  0.25138139  0.92323659    -0.20300
F3115       F  0.53223482  0.24969692  0.97055554    -0.20000
F3116       F  0.58475914  0.10331881  0.93289158    -0.20000
F3117       F  0.61032006  0.13422257  0.89756890    -0.20300
F3118       F  0.56296282  0.11403441  0.88621508    -0.23000
C3119       C  0.91512014  0.17783556  0.57548884    -0.05800
C3120       C  0.89162367  0.17343568  0.59876714     0.00100
C3121       C  0.87598592  0.14460352  0.60291931    -0.08500
C3122       C  0.88520982  0.12057384  0.58347817    -0.05900
C3123       C  0.90856522  0.12534483  0.55955015     0.00100
C3124       C  0.92375306  0.15485535  0.55552819    -0.08400
C3125       C  0.94926179  0.16476526  0.53124646     0.62000
H3126       H  0.92655006  0.20036610  0.57216255     0.12700
H3127       H  0.87431533  0.09793183  0.58712373     0.12700
C3128       C  0.85037539  0.13800245  0.62763864     0.62200
F3129       F  0.97586561  0.17441806  0.54633004    -0.23000
F3130       F  0.93933335  0.18950486  0.51401941    -0.20300
F3131       F  0.95749369  0.14256089  0.51075835    -0.20000
F3132       F  0.82468361  0.12477418  0.61347796    -0.20000
F3133       F  0.84080353  0.16387649  0.64261034    -0.20300
F3134       F  0.86111157  0.11787822  0.65001735    -0.23000
C3135       C  0.59116687  0.16835115  0.54917657    -0.05800
C3136       C  0.57226396  0.18840626  0.56563910     0.00100
C3137       C  0.54326151  0.17677813  0.57930092    -0.08500
C3138       C  0.53427652  0.14591823  0.57458487    -0.05900
C3139       C  0.55372445  0.12521805  0.55887996     0.00100
C3140       C  0.58340868  0.13728032  0.54640337    -0.08400
C3141       C  0.60833804  0.11995250  0.52882809     0.62000
H3142       H  0.61352598  0.17670342  0.53887417     0.12700
H3143       H  0.51087451  0.13851818  0.58212960     0.12700
C3144       C  0.52114892  0.19649949  0.59811222     0.62200
F3145       F  0.63664914  0.12289213  0.54385143    -0.23000
F3146       F  0.61249584  0.13229123  0.49871137    -0.20300
F3147       F  0.60114367  0.08953586  0.52668302    -0.20000
F3148       F  0.51488164  0.22258977  0.58076498    -0.20000
F3149       F  0.53456092  0.20437888  0.62611903    -0.20300
F3150       F  0.49271827  0.18141516  0.60590912    -0.23000
C3151       C  0.75053617  0.66365200  0.05029698     0.42400
N3152       N  0.74398229  0.69577714  0.01162169     0.01300
C3153       C  0.85107523  0.79835738  0.43488171    -0.06600
H3154       H  0.84588057  0.81108382  0.05785548     0.06800
C3155       C  0.72077999  0.83940057  0.03308109    -0.06900
Co3156     Co  0.80038807  0.72799209  0.48383756     0.74200
N3157       N  0.82196047  0.78159085  0.02462421    -0.26100
Co3158     Co  0.80082042  0.80800538  0.98852102     0.74100
C3159       C  0.74247993  0.85453731  0.05383670     0.42500
N3160       N  0.69258028  0.77212527  0.00750597     0.00900
N3161       N  0.76812988  0.82808015  0.01987488     0.01000
N3162       N  0.84092446  0.74867542  0.42752683    -0.47000
H3163       H  0.80422591  0.67477266  0.04906618     0.06800
N3164       N  0.82107643  0.75151156  0.02190725     0.01300
N3165       N  0.77903184  0.83283005  0.45163090     0.01000
C3166       C  0.77029808  0.85956492  0.40885656     0.42600
N3167       N  0.69451745  0.74212447  0.00739472    -0.25600
C3168       C  0.79568356  0.68485692  0.42530129    -0.06500
N3169       N  0.72907289  0.67597103  0.03140008    -0.46700
N3170       N  0.79185697  0.85366575  0.43119780    -0.46900
C3171       C  0.77069136  0.67052461  0.40652680     0.42400
N3172       N  0.82495875  0.75788647  0.45210344     0.01300
N3173       N  0.70031671  0.74735890  0.43836108    -0.25600
N3174       N  0.77454014  0.69791984  0.01597463    -0.26100
N3175       N  0.69906149  0.77730211  0.43933574     0.00900
H3176       H  0.67372158  0.71361316  0.41333316     0.06800
H3177       H  0.72001315  0.83866034  0.40778850     0.06800
N3178       N  0.82900024  0.78747016  0.45616996    -0.26100
N3179       N  0.73818095  0.82400357  0.01306053    -0.25800
N3180       N  0.75131361  0.70164011  0.44114504     0.01300
C3181       C  0.84944355  0.75843014  0.06310085     0.42700
C3182       C  0.67505811  0.73001658  0.02985748    -0.07000
N3183       N  0.74955067  0.82586908  0.44532840    -0.25800
H3184       H  0.69561841  0.84029343  0.03261910     0.06800
N3185       N  0.83665511  0.73758736  0.04394751    -0.47000
H3186       H  0.67073604  0.70583223  0.03469908     0.06800
C3187       C  0.66495131  0.76445523  0.40437252     0.42500
C3188       C  0.78109755  0.67848893  0.04013167    -0.06500
Co3189     Co  0.72123250  0.72203396  0.47396531     0.73800
N3190       N  0.67174851  0.78137419  0.02871541    -0.46700
C3191       C  0.85933067  0.77221965  0.41539543     0.42800
N3192       N  0.74379393  0.68179033  0.41903019    -0.46700
Co3193     Co  0.72025309  0.79912710  0.97573181     0.73900
C3194       C  0.74303418  0.83925123  0.41795221    -0.07000
C3195       C  0.83970538  0.78833944  0.05011013    -0.06600
N3196       N  0.78173164  0.70359568  0.44560975    -0.26100
N3197       N  0.77197893  0.84665202  0.04432236    -0.46900
H3198       H  0.85947989  0.82187076  0.43254821     0.06800
C3199       C  0.68045093  0.73738910  0.41657554    -0.07000
Cl3200     Cl  0.76156892  0.76357076  0.98129520    -0.50000
C3201       C  0.66019817  0.75597783  0.04430315     0.42500
H3202       H  0.82010984  0.67952239  0.42581533     0.06800
N3203       N  0.67764859  0.78815673  0.42029607    -0.46700
C3204       C  0.62907049  0.75292070  0.05982362     0.80200
N3205       N  0.62120291  0.76787322  0.08662649    -0.78200
C3206       C  0.59322046  0.76020158  0.10188388     0.82600
N3207       N  0.57507498  0.73655974  0.09134300    -0.78100
C3208       C  0.58340217  0.72080070  0.06586119     0.82700
N3209       N  0.61028907  0.72960901  0.05015841    -0.79800
C3210       C  0.86826636  0.74668624  0.08989637     0.80200
N3211       N  0.86453393  0.71590835  0.09395893    -0.78200
C3212       C  0.88308536  0.69961992  0.11244221     0.82600
N3213       N  0.90544002  0.71457723  0.12821462    -0.78100
C3214       C  0.91078482  0.74514585  0.12515063     0.82700
N3215       N  0.89260569  0.76186988  0.10488798    -0.79800
C3216       C  0.58815296  0.76348616  0.36356405     0.80200
N3217       N  0.61918677  0.77012322  0.36927347    -0.78200
C3218       C  0.63097123  0.76242138  0.39792617     0.82600
N3219       N  0.61218807  0.74679039  0.41951381    -0.78100
C3220       C  0.58173172  0.73953642  0.41369994     0.82700
N3221       N  0.57006662  0.74783490  0.38566173    -0.79800
C3222       C  0.91732308  0.74168938  0.36229077     0.80200
N3223       N  0.91690872  0.71438328  0.37829069    -0.78200
C3224       C  0.90608211  0.71265416  0.40854162     0.82600
N3225       N  0.89844986  0.73838435  0.42282653    -0.78100
C3226       C  0.89109738  0.76318724  0.40565929     0.82700
N3227       N  0.90139728  0.76539334  0.37486904    -0.79800
N3228       N  0.96281516  0.60183096  0.45972037    -0.36700
N3229       N  0.92442653  0.58364531  0.00678449    -0.57200
N3230       N  0.98120092  0.57783181  0.05012701    -0.36700
N3231       N  0.53915533  0.61338996  0.99222145    -0.57200
C3232       C  0.93542437  0.61167836  0.44869803     0.26900
C3233       C  0.48746184  0.62077753  0.43423860     0.26900
C3234       C  0.95767887  0.58046409  0.07143593     0.26900
C3235       C  0.51124722  0.58161322  0.06294911     0.26900
C3236       C  0.90114829  0.59001952  0.49307019     0.35500
C3237       C  0.91173058  0.57750312  0.03568230     0.35500
C3238       C  0.52980578  0.60403957  0.46536622     0.35500
C3239       C  0.53836152  0.58985929  0.01297509     0.35500
C3240       C  0.94282900  0.63024821  0.42221946    -0.22000
C3241       C  0.47416150  0.63472330  0.40891311    -0.22000
C3242       C  0.97034572  0.58559561  0.10072576    -0.22000
C3243       C  0.50591716  0.58519212  0.09491330    -0.22000
C3244       C  0.87253744  0.58111421  0.50746012    -0.23000
C3245       C  0.87930131  0.57480497  0.03339709    -0.23000
C3246       C  0.52363202  0.57272645  0.46732205    -0.23000
C3247       C  0.53019604  0.56268995  0.99866943    -0.23000
C3248       C  0.90502013  0.60680078  0.46409575    -0.18400
C3249       C  0.51888052  0.62433037  0.44285774    -0.18400
C3250       C  0.53712299  0.59544852  0.04516271    -0.18400
C3251       C  0.92664528  0.58728337  0.06327333    -0.18400
H3252       H  0.92829689  0.64155853  0.40639188     0.14500
H3253       H  0.48615624  0.64750390  0.38975001     0.14500
H3254       H  0.95751882  0.59082305  0.12212994     0.14500
H3255       H  0.52287683  0.59323857  0.11166374     0.14500
H3256       H  0.84957223  0.58202089  0.49722264     0.12800
H3257       H  0.86227237  0.57308731  0.05279059     0.12800
H3258       H  0.51198300  0.55869390  0.45054778     0.12800
H3259       H  0.52571656  0.54048497  0.00997725     0.12800
H3260       H  0.96564423  0.58838296  0.47971654     0.26100
H3261       H  0.97783763  0.57764393  0.02603423     0.26100
C3262       C  0.58637649  0.66707394  0.23781122     0.42400
N3263       N  0.54938328  0.69914347  0.24759092     0.01300
C3264       C  0.95322184  0.78484378  0.15118573    -0.06600
H3265       H  0.56999875  0.81778350  0.13559547     0.06800
C3266       C  0.55643464  0.84141414  0.27029376    -0.06900
Co3267     Co  0.01737428  0.72472652  0.19212534     0.74200
N3268       N  0.54900820  0.78417805  0.16877092    -0.26100
Co3269     Co  0.00960195  0.80509829  0.19472279     0.74100
C3270       C  0.57499291  0.86005826  0.24776526     0.42500
N3271       N  0.53743882  0.77445613  0.30067569     0.00900
N3272       N  0.54223403  0.83007908  0.22343940     0.01000
N3273       N  0.96013576  0.73418114  0.15115070    -0.47000
H3274       H  0.58012496  0.67404561  0.18416251     0.06800
N3275       N  0.55234967  0.75436381  0.17158960     0.01300
N3276       N  0.97092171  0.82278496  0.21915952     0.01000
C3277       C  0.92792899  0.84600064  0.23206235     0.42600
N3278       N  0.54129810  0.74495587  0.29795756    -0.25600
C3279       C  0.96394748  0.67182465  0.20307376    -0.06500
N3280       N  0.56882658  0.67995347  0.26065066    -0.46700
N3281       N  0.94954419  0.84175628  0.20850632    -0.46900
C3282       C  0.95021516  0.65555060  0.23127686     0.42400
N3283       N  0.98218118  0.74799687  0.16750664     0.01300
N3284       N  0.97352157  0.73511772  0.29730300    -0.25600
N3285       N  0.55182055  0.69989477  0.21662162    -0.26100
N3286       N  0.96871851  0.76464273  0.29817378     0.00900
H3287       H  0.95273804  0.69641032  0.32359349     0.06800
H3288       H  0.93018300  0.82582172  0.28255997     0.06800
N3289       N  0.97883211  0.77792378  0.16801978    -0.26100
N3290       N  0.53692623  0.82448935  0.25380108    -0.25800
N3291       N  0.98229200  0.69177783  0.24516962     0.01300
C3292       C  0.58647598  0.76812456  0.13478037     0.42700
C3293       C  0.56473633  0.73678706  0.31632982    -0.07000
N3294       N  0.96627582  0.81528187  0.24913801    -0.25800
H3295       H  0.55614213  0.84195511  0.29570885     0.06800
N3296       N  0.57467335  0.74459528  0.15289362    -0.47000
H3297       H  0.57197508  0.71363227  0.32025172     0.06800
C3298       C  0.93466257  0.74460214  0.33168946     0.42500
C3299       C  0.57451484  0.68029939  0.20806804    -0.06500
Co3300     Co  0.01222414  0.71811945  0.27244987     0.73800
N3301       N  0.55671845  0.78688749  0.32137337    -0.46700
C3302       C  0.94075175  0.75542628  0.13985191     0.42800
N3303       N  0.96332017  0.66914302  0.25613090    -0.46700
Co3304     Co  0.00145360  0.79521343  0.27650282     0.73900
C3305       C  0.93885864  0.82647765  0.25837287    -0.07000
C3306       C  0.56929667  0.79482611  0.14562859    -0.06600
N3307       N  0.98359018  0.69387330  0.21414704    -0.26100
N3308       N  0.56460842  0.85242158  0.21854698    -0.46900
H3309       H  0.94392954  0.80733537  0.14830699     0.06800
C3310       C  0.95294871  0.72054079  0.31748326    -0.07000
Cl3311     Cl  0.01019439  0.76072337  0.23396135    -0.50000
C3312       C  0.57563557  0.76471434  0.33161228     0.42500
H3313       H  0.96146630  0.66634550  0.17856444     0.06800
N3314       N  0.94627855  0.77137384  0.31889234    -0.46700
C3315       C  0.73082722  0.87362731  0.08029610     0.80200
N3316       N  0.69874475  0.87275968  0.08497540    -0.78200
C3317       C  0.68479779  0.88892073  0.10781403     0.82600
N3318       N  0.70350023  0.90640991  0.12549635    -0.78100
C3319       C  0.73504265  0.90924483  0.12138223     0.82700
N3320       N  0.74945930  0.89270612  0.09825834    -0.79800
C3321       C  0.74083349  0.64295609  0.07783491     0.80200
N3322       N  0.76161820  0.62677425  0.09573962    -0.78200
C3323       C  0.75028234  0.61218723  0.12304135     0.82600
N3324       N  0.71974664  0.61527173  0.13153369    -0.78100
C3325       C  0.69840203  0.62420525  0.11102393     0.82700
N3326       N  0.70912308  0.63870767  0.08402252    -0.79800
C3327       C  0.77134530  0.63797993  0.39653224     0.80200
N3328       N  0.77586833  0.62874294  0.36591369    -0.78200
C3329       C  0.77414189  0.59794285  0.35925492     0.82600
N3330       N  0.76617768  0.57749066  0.38292011    -0.78100
C3331       C  0.76096149  0.58673461  0.41277887     0.82700
N3332       N  0.76372188  0.61671647  0.41923332    -0.79800
C3333       C  0.75304209  0.92942024  0.36073602     0.80200
N3334       N  0.77062559  0.90565386  0.37136684    -0.78200
C3335       C  0.76176871  0.89102148  0.39949650     0.82600
N3336       N  0.73574273  0.89980065  0.41510501    -0.78100
C3337       C  0.71694690  0.92070226  0.40318217     0.82700
N3338       N  0.72574709  0.93540977  0.37617333    -0.79800
N3339       N  0.65158773  0.54024346  0.04748528    -0.36700
N3340       N  0.58353973  0.98850220  0.07857605    -0.57200
N3341       N  0.61106410  0.93139288  0.04836776    -0.36700
N3342       N  0.66313723  0.97339787  0.52388203    -0.57200
C3343       C  0.61992218  0.53790214  0.05213584     0.26900
C3344       C  0.65589664  0.53430386  0.51685946     0.26900
C3345       C  0.58082718  0.93081360  0.05825756     0.26900
C3346       C  0.61304771  0.92881019  0.51902640     0.26900
C3347       C  0.58366849  0.51557907  0.09192243     0.35500
C3348       C  0.56933256  0.96638501  0.09703264     0.35500
C3349       C  0.68614598  0.49025162  0.50884051     0.35500
C3350       C  0.66769023  0.94576819  0.51198147     0.35500
C3351       C  0.60597157  0.52809619  0.02489443    -0.22000
C3352       C  0.62818331  0.52704667  0.50200870    -0.22000
C3353       C  0.56113547  0.92595042  0.03348550    -0.22000
C3354       C  0.58266090  0.92388331  0.50869797    -0.22000
C3355       C  0.56806584  0.51158371  0.12077636    -0.23000
C3356       C  0.55699600  0.97950884  0.12380023    -0.23000
C3357       C  0.70876186  0.47319359  0.49423557    -0.23000
C3358       C  0.69752958  0.94563259  0.49784012    -0.23000
C3359       C  0.60434741  0.54004616  0.08178249    -0.18400
C3360       C  0.68489592  0.52242612  0.50821956    -0.18400
C3361       C  0.64123623  0.92909251  0.50109681    -0.18400
C3362       C  0.57220908  0.93504122  0.08982807    -0.18400
H3363       H  0.58129141  0.52270960  0.02154033     0.14500
H3364       H  0.62646137  0.51781534  0.47889840     0.14500
H3365       H  0.53571533  0.92422883  0.03444708     0.14500
H3366       H  0.57581639  0.91870964  0.48511929     0.14500
H3367       H  0.56561682  0.52840696  0.13882882     0.12800
H3368       H  0.54326841  0.96830914  0.14269384     0.12800
H3369       H  0.73089565  0.48151634  0.48351059     0.12800
H3370       H  0.70687466  0.92772606  0.48364794     0.12800
H3371       H  0.66883124  0.54403558  0.06399397     0.26100
H3372       H  0.63055046  0.93502181  0.06241383     0.26100
C3373       C  0.59313851  0.88721583  0.25975147     0.80200
N3374       N  0.61794363  0.90317822  0.24464944    -0.78200
C3375       C  0.63407743  0.92560604  0.26068644     0.82600
N3376       N  0.62613673  0.93009436  0.29126144    -0.78100
C3377       C  0.60221867  0.91450916  0.30640889     0.82700
N3378       N  0.58593992  0.89346219  0.29026808    -0.79800
C3379       C  0.89758069  0.58602229  0.22143432     0.80200
N3380       N  0.91035529  0.61505361  0.21685781    -0.78200
C3381       C  0.93544956  0.62433566  0.23430205     0.82600
N3382       N  0.94432439  0.60607897  0.25863019    -0.78100
C3383       C  0.93178939  0.57724144  0.26264423     0.82700
N3384       N  0.90996639  0.56723113  0.24293252    -0.79800
C3385       C  0.60197033  0.63729602  0.24494924     0.80200
N3386       N  0.62880484  0.62692804  0.22993374    -0.78200
C3387       C  0.64166359  0.60014589  0.24090469     0.82600
N3388       N  0.62814922  0.58525254  0.26619522    -0.78100
C3389       C  0.60298266  0.59568853  0.28131261     0.82700
N3390       N  0.58997487  0.62152012  0.27082563    -0.79800
C3391       C  0.88260513  0.91794586  0.24721904     0.80200
N3392       N  0.89546956  0.92336647  0.27573436    -0.78200
C3393       C  0.91975645  0.90732249  0.28600022     0.82600
N3394       N  0.93092605  0.88536512  0.26843547    -0.78100
C3395       C  0.91786945  0.87704250  0.24138769     0.82700
N3396       N  0.89290212  0.89330763  0.23016295    -0.79800
N3397       N  0.93959706  0.97061712  0.41298235    -0.36700
N3398       N  0.50208661  0.92196900  0.41732209    -0.57200
N3399       N  0.54202616  0.99055057  0.41282274    -0.36700
N3400       N  0.48852093  0.53450793  0.40150018    -0.57200
C3401       C  0.92703848  0.94179969  0.41498413     0.26900
C3402       C  0.93299238  0.50430152  0.40192740     0.26900
C3403       C  0.55563727  0.97242649  0.43393435     0.26900
C3404       C  0.55194020  0.51999902  0.41346926     0.26900
C3405       C  0.97368060  0.91717105  0.43151921     0.35500
C3406       C  0.52293246  0.92921116  0.43951667     0.35500
C3407       C  0.97027218  0.54883132  0.39153014     0.35500
C3408       C  0.51344336  0.55208682  0.39059245     0.35500
C3409       C  0.89701619  0.94136214  0.40327230    -0.22000
C3410       C  0.90261782  0.49178888  0.40252427    -0.22000
C3411       C  0.57783665  0.98894165  0.45011880    -0.22000
C3412       C  0.57493988  0.52103614  0.43584518    -0.22000
C3413       C  0.97510075  0.92819771  0.46165293    -0.23000
C3414       C  0.50703644  0.93805568  0.46661670    -0.23000
C3415       C  0.97914379  0.57617722  0.37593086    -0.23000
C3416       C  0.50384201  0.57625196  0.37237359    -0.23000
C3417       C  0.94674085  0.91680601  0.41339542    -0.18400
C3418       C  0.94193243  0.53204217  0.38636402    -0.18400
C3419       C  0.54468367  0.54336248  0.39250068    -0.18400
C3420       C  0.55346730  0.94059713  0.43128306    -0.18400
H3421       H  0.88180351  0.92167846  0.39932161     0.14500
H3422       H  0.88168447  0.50278851  0.39494385     0.14500
H3423       H  0.59209511  0.97996315  0.46838881     0.14500
H3424       H  0.58966993  0.54064419  0.44176536     0.14500
H3425       H  0.95557734  0.93459382  0.47660412     0.12800
H3426       H  0.51739901  0.94838217  0.48695722     0.12800
H3427       H  0.96490037  0.59069992  0.36180071     0.12800
H3428       H  0.51848481  0.59340624  0.35966283     0.12800
H3429       H  0.96304162  0.97624541  0.41725854     0.26100
H3430       H  0.52566014  0.98344440  0.39650551     0.26100
C3431       C  0.66083720  0.94603730  0.24818201     0.42400
N3432       N  0.69534564  0.98356224  0.25174373     0.01300
C3433       C  0.79126873  0.56652268  0.14359861    -0.06600
H3434       H  0.80345587  0.93954729  0.14057331     0.06800
C3435       C  0.84142802  0.95681602  0.26368527    -0.06900
Co3436     Co  0.72275293  0.51113735  0.19204629     0.74200
N3437       N  0.77538623  0.97112500  0.16728281    -0.26100
Co3438     Co  0.80553023  0.50565183  0.18672979     0.74100
C3439       C  0.85522726  0.93779801  0.23960459     0.42500
N3440       N  0.77626274  0.98346945  0.29949248     0.00900
N3441       N  0.82714884  0.97312280  0.21804081     0.01000
N3442       N  0.73955142  0.56571946  0.15298180    -0.47000
H3443       H  0.66612670  0.94801098  0.19381861     0.06800
N3444       N  0.74456363  0.97338280  0.17060881     0.01300
N3445       N  0.83306598  0.53930781  0.20853473     0.01000
C3446       C  0.86406607  0.57854014  0.21719263     0.42600
N3447       N  0.74546896  0.98479063  0.29817671    -0.25600
C3448       C  0.68111158  0.56976635  0.20441784    -0.06500
N3449       N  0.67600197  0.96463843  0.26813103    -0.46700
N3450       N  0.85409272  0.55897765  0.19493199    -0.46900
C3451       C  0.67310811  0.58820463  0.23209840     0.42400
N3452       N  0.75137693  0.54145581  0.16548329     0.01300
N3453       N  0.75338572  0.55096480  0.29348723    -0.25600
N3454       N  0.69422626  0.97932568  0.22126613    -0.26100
N3455       N  0.78408659  0.54903570  0.29386298     0.00900
H3456       H  0.72098003  0.57828718  0.31916911     0.06800
H3457       H  0.84983346  0.57637337  0.26980460     0.06800
N3458       N  0.78216345  0.54089521  0.16139626    -0.26100
N3459       N  0.82521353  0.97790503  0.24867901    -0.25800
N3460       N  0.70460513  0.55164849  0.24463746     0.01300
C3461       C  0.74898820  0.93413619  0.14080850     0.42700
C3462       C  0.73248338  0.96225119  0.31618978    -0.07000
N3463       N  0.82984948  0.54333568  0.23910141    -0.25800
H3464       H  0.84484768  0.95600812  0.28881120     0.06800
N3465       N  0.72873436  0.95225223  0.15554400    -0.47000
H3466       H  0.70769824  0.95783905  0.32005797     0.06800
C3467       C  0.77397776  0.58592786  0.32636314     0.42500
C3468       C  0.67289218  0.95605786  0.21646399    -0.06500
Co3469     Co  0.72526106  0.51766606  0.27171695     0.73800
N3470       N  0.78515147  0.96150086  0.31935087    -0.46700
C3471       C  0.76198780  0.58349673  0.13828850     0.42800
N3472       N  0.68890319  0.57473098  0.25571850    -0.46700
Co3473     Co  0.80305607  0.01465694  0.27043197     0.73900
C3474       C  0.84653687  0.56847888  0.24614033    -0.07000
C3475       C  0.78065013  0.94679024  0.14852979    -0.06600
N3476       N  0.70097854  0.54820257  0.21434158    -0.26100
N3477       N  0.84579998  0.94982653  0.21146981    -0.46900
H3478       H  0.81520418  0.57332280  0.13693414     0.06800
C3479       C  0.74496173  0.57339896  0.31272575    -0.07000
Cl3480     Cl  0.76488504  0.51138614  0.22989550    -0.50000
C3481       C  0.75832512  0.94657950  0.33039413     0.42500
H3482       H  0.67191336  0.57153115  0.18111614     0.06800
N3483       N  0.79702641  0.56847180  0.31406398    -0.46700
C3484       C  0.91371829  0.88795010  0.34033827    -0.05800
C3485       C  0.92980067  0.90778477  0.31851771     0.00100
C3486       C  0.95877726  0.92165097  0.32645810    -0.08500
C3487       C  0.96665953  0.92178204  0.35825508    -0.05900
C3488       C  0.94841886  0.90461309  0.38110847     0.00100
C3489       C  0.92420656  0.88450963  0.37111233    -0.08400
C3490       C  0.90867093  0.85997695  0.39247800     0.62000
H3491       H  0.89363369  0.87417804  0.33294483     0.12700
H3492       H  0.98581829  0.93672352  0.36555189     0.12700
C3493       C  0.98112271  0.93538348  0.30122952     0.62200
F3494       F  0.92433793  0.85667026  0.42038542    -0.23000
F3495       F  0.90888893  0.83236367  0.37739279    -0.20300
F3496       F  0.87787019  0.86690989  0.39909690    -0.20000
F3497       F  0.96590547  0.95661271  0.28329380    -0.20000
F3498       F  0.99120482  0.91254378  0.28190358    -0.20300
F3499       F  0.00733421  0.94929010  0.31397630    -0.23000
C3500       C  0.56799755  0.55697934  0.30733678    -0.05800
C3501       C  0.59146196  0.57963855  0.31011768     0.00100
C3502       C  0.60609992  0.58367599  0.33927127    -0.08500
C3503       C  0.59233594  0.56888481  0.36635056    -0.05900
C3504       C  0.56547814  0.54964921  0.36413074     0.00100
C3505       C  0.55616736  0.54029349  0.33379964    -0.08400
C3506       C  0.53594095  0.51162037  0.32895340     0.62000
H3507       H  0.55949371  0.55203916  0.28412762     0.12700
H3508       H  0.60152247  0.57323010  0.38936186     0.12700
C3509       C  0.63604501  0.60328610  0.34127510     0.62200
F3510       F  0.50566159  0.51504105  0.33978550    -0.23000
F3511       F  0.53506309  0.50429039  0.29749832    -0.20300
F3512       F  0.54839058  0.48734871  0.34474604    -0.20000
F3513       F  0.63138684  0.63254880  0.32989770    -0.20000
F3514       F  0.65974158  0.59055018  0.32370372    -0.20300
F3515       F  0.64586509  0.60524809  0.37175642    -0.23000
C3516       C  0.91408131  0.57629087  0.31770022    -0.05800
C3517       C  0.93077427  0.56205735  0.29376164     0.00100
C3518       C  0.94013034  0.53185543  0.29887323    -0.08500
C3519       C  0.93971409  0.52010782  0.33004062    -0.05900
C3520       C  0.92811669  0.53725984  0.35506861     0.00100
C3521       C  0.91145914  0.56343581  0.34813179    -0.08400
C3522       C  0.89241738  0.57950050  0.37217881     0.62000
H3523       H  0.90309134  0.59773719  0.31261761     0.12700
H3524       H  0.95073116  0.49877474  0.33536155     0.12700
C3525       C  0.95158032  0.51298604  0.27186162     0.62200
F3526       F  0.86126975  0.57851783  0.36372763    -0.23000
F3527       F  0.90345625  0.60931170  0.37208621    -0.20300
F3528       F  0.89421930  0.56691326  0.40219069    -0.20000
F3529       F  0.97596156  0.52852281  0.25541064    -0.20000
F3530       F  0.92714562  0.50711271  0.25181074    -0.20300
F3531       F  0.96219435  0.48538744  0.28246627    -0.23000
C3532       C  0.59512607  0.94863297  0.38819133    -0.05800
C3533       C  0.57219788  0.92872947  0.40330109     0.00100
C3534       C  0.56632789  0.90014378  0.38914175    -0.08500
C3535       C  0.57596984  0.89665558  0.35741533    -0.05900
C3536       C  0.59431302  0.91942558  0.34044705     0.00100
C3537       C  0.60504018  0.94558274  0.35681377    -0.08400
C3538       C  0.62525667  0.97151517  0.34141414     0.62000
H3539       H  0.60396676  0.96828438  0.40033903     0.12700
H3540       H  0.56980678  0.87539015  0.34615007     0.12700
C3541       C  0.55354056  0.87197404  0.40737177     0.62200
F3542       F  0.62994193  0.99593165  0.36106141    -0.23000
F3543       F  0.61117497  0.98272619  0.31482513    -0.20300
F3544       F  0.65425624  0.96077914  0.33348341    -0.20000
F3545       F  0.52254058  0.86582734  0.40006041    -0.20000
F3546       F  0.55585908  0.87537752  0.43950317    -0.20300
F3547       F  0.57084600  0.84703798  0.39936642    -0.23000
C3548       C  0.64794079  0.95029939  0.44765897    -0.05800
C3549       C  0.64120371  0.92394717  0.46668885     0.00100
C3550       C  0.64948378  0.89543317  0.45519361    -0.08500
C3551       C  0.67123864  0.89515544  0.43004619    -0.05900
C3552       C  0.68516777  0.92252327  0.41727196     0.00100
C3553       C  0.67102606  0.95036560  0.42346025    -0.08400
C3554       C  0.68400529  0.98074178  0.41006029     0.62000
H3555       H  0.64151988  0.97203968  0.45673909     0.12700
H3556       H  0.68021446  0.87344284  0.42308703     0.12700
C3557       C  0.63974576  0.86527848  0.47122048     0.62200
F3558       F  0.66304898  0.00329852  0.41567813    -0.23000
F3559       F  0.68869329  0.97994168  0.37795403    -0.20300
F3560       F  0.71225026  0.98829247  0.42378167    -0.20000
F3561       F  0.61673880  0.86835958  0.49429054    -0.20000
F3562       F  0.66572890  0.85277282  0.48451482    -0.18800
F3563       F  0.62796449  0.84544468  0.44919670    -0.23000
C3564       C  0.69354453  0.54381028  0.45463649    -0.05800
C3565       C  0.70520770  0.53989672  0.48483344     0.00100
C3566       C  0.73604554  0.55064034  0.49124790    -0.08500
C3567       C  0.75488503  0.56380755  0.46634509    -0.05900
C3568       C  0.74330594  0.56683404  0.43583454     0.00100
C3569       C  0.71191844  0.55726030  0.42995018    -0.08400
C3570       C  0.69731091  0.56235590  0.39810747     0.62000
H3571       H  0.66968318  0.53618065  0.45051553     0.12700
H3572       H  0.77828078  0.57307775  0.47074730     0.12700
C3573       C  0.74791534  0.55016613  0.52455099     0.62200
F3574       F  0.66526358  0.55570991  0.39917481    -0.23000
F3575       F  0.71096663  0.54376938  0.37621257    -0.20300
F3576       F  0.70186568  0.59258957  0.38839471    -0.20000
F3577       F  0.74583948  0.52076604  0.53719089    -0.20000
F3578       F  0.77895857  0.56069614  0.52559343    -0.20300
F3579       F  0.72978220  0.56878178  0.54286890    -0.23000
C3580       C  0.61386543  0.59230779  0.10233239    -0.05800
C3581       C  0.61940595  0.56077837  0.10457088     0.00100
C3582       C  0.64734973  0.55163082  0.11816212    -0.08500
C3583       C  0.67238369  0.57309595  0.11809593    -0.05900
C3584       C  0.66880678  0.60452670  0.11194828     0.00100
C3585       C  0.63805853  0.61459151  0.10801676    -0.08400
C3586       C  0.63098462  0.64793866  0.11093025     0.62000
H3587       H  0.59125636  0.59926693  0.09448517     0.12700
H3588       H  0.69539565  0.56455876  0.12070086     0.12700
C3589       C  0.65238678  0.51864809  0.12827758     0.62200
F3590       F  0.59894248  0.65210054  0.11117543    -0.23000
F3591       F  0.64517078  0.66492255  0.08630907    -0.20300
F3592       F  0.64239133  0.65850889  0.13898828    -0.20000
F3593       F  0.65182422  0.49956868  0.10283207    -0.20000
F3594       F  0.62897589  0.50910971  0.14975625    -0.20300
F3595       F  0.68089093  0.51572031  0.14276137    -0.23000
C3596       C  0.59427765  0.88374628  0.09941541    -0.05800
C3597       C  0.58737516  0.91247820  0.11195112     0.00100
C3598       C  0.60831536  0.92334290  0.13434517    -0.08500
C3599       C  0.63973440  0.91515481  0.13204396    -0.05900
C3600       C  0.64971709  0.89208027  0.11186519     0.00100
C3601       C  0.62568947  0.87398139  0.09760795    -0.08400
C3602       C  0.63270024  0.84685448  0.07772423     0.62000
H3603       H  0.57677668  0.87289133  0.08488266     0.12700
H3604       H  0.65619781  0.92645353  0.14721496     0.12700
C3605       C  0.59664083  0.93508012  0.16526711     0.62200
F3606       F  0.60561015  0.82960630  0.07192768    -0.23000
F3607       F  0.65322590  0.82806120  0.09277576    -0.20300
F3608       F  0.64562066  0.85730974  0.04921702    -0.20000
F3609       F  0.56494760  0.92807887  0.17041111    -0.20000
F3610       F  0.60260149  0.96604929  0.16679247    -0.20300
F3611       F  0.61231094  0.92116378  0.18901073    -0.23000
C3612       C  0.87022308  0.63241883  0.42573726    -0.05800
C3613       C  0.88006753  0.62915752  0.45681283     0.00100
C3614       C  0.88225275  0.65643917  0.47346517    -0.08500
C3615       C  0.89446548  0.68247512  0.45720994    -0.05900
C3616       C  0.89415023  0.68388139  0.42416785     0.00100
C3617       C  0.87635090  0.66047408  0.40882164    -0.08400
C3618       C  0.86536757  0.66422864  0.37530079     0.62000
H3619       H  0.86071233  0.61254379  0.41429813     0.12700
H3620       H  0.90150453  0.70248714  0.47019440     0.12700
C3621       C  0.86420769  0.65971031  0.50421292     0.62200
F3622       F  0.89069922  0.66538719  0.35424202    -0.23000
F3623       F  0.84920144  0.69085789  0.37222982    -0.20300
F3624       F  0.84539225  0.64012268  0.36734530    -0.20000
F3625       F  0.87482797  0.64061666  0.52723726    -0.20000
F3626       F  0.83284039  0.65233385  0.49963824    -0.20300
F3627       F  0.86675809  0.68929092  0.51484194    -0.23000
C3628       C  0.51954724  0.68183653  0.44468447    -0.05800
C3629       C  0.53563843  0.65489691  0.43885532     0.00100
C3630       C  0.56785427  0.65731751  0.42998000    -0.08500
C3631       C  0.58315122  0.68615289  0.42816671    -0.05900
C3632       C  0.56645433  0.71290301  0.43034023     0.00100
C3633       C  0.53420754  0.71096924  0.43939935    -0.08400
C3634       C  0.51436164  0.73866574  0.44333894     0.62000
H3635       H  0.49502710  0.68019190  0.45232557     0.12700
H3636       H  0.60772087  0.68809220  0.42078793     0.12700
C3637       C  0.58453276  0.63042557  0.41693670     0.62200
F3638       F  0.50013859  0.73752596  0.47300662    -0.23000
F3639       F  0.49128578  0.73832375  0.42104713    -0.20300
F3640       F  0.53178536  0.76594026  0.44014724    -0.20000
F3641       F  0.58924036  0.60849178  0.43998427    -0.20000
F3642       F  0.61349565  0.63932211  0.40369280    -0.20300
F3643       F  0.56625753  0.61814253  0.39371508    -0.23000
C3644       C  0.91278569  0.67146191  0.07530858    -0.05800
C3645       C  0.89175224  0.66988297  0.10097390     0.00100
C3646       C  0.88266861  0.64162427  0.11532323    -0.08500
C3647       C  0.89431628  0.61484551  0.10224730    -0.05900
C3648       C  0.91530068  0.61633599  0.07599620     0.00100
C3649       C  0.92547082  0.64554650  0.06256127    -0.08400
C3650       C  0.94809796  0.65091333  0.03411020     0.62000
H3651       H  0.91925091  0.69387982  0.06523420     0.12700
H3652       H  0.88732786  0.59263323  0.11244417     0.12700
C3653       C  0.86103971  0.64034095  0.14408023     0.62200
F3654       F  0.95728450  0.68144809  0.02972634    -0.23000
F3655       F  0.93421513  0.64203548  0.00699357    -0.20300
F3656       F  0.97503698  0.63541249  0.03733550    -0.20000
F3657       F  0.83253876  0.65236925  0.13663555    -0.20000
F3658       F  0.87445338  0.65717082  0.16773830    -0.20300
F3659       F  0.85559776  0.61075268  0.15520421    -0.23000
C3660       C  0.58798532  0.66978512  0.04359249    -0.05800
C3661       C  0.56919769  0.68972973  0.06041528     0.00100
C3662       C  0.54000474  0.67819478  0.07369274    -0.08500
C3663       C  0.53104294  0.64735418  0.06900084    -0.05900
C3664       C  0.55085925  0.62662268  0.05387833     0.00100
C3665       C  0.58045459  0.63863950  0.04129629    -0.08400
C3666       C  0.60535213  0.62087972  0.02415620     0.62000
H3667       H  0.61025135  0.67813549  0.03308555     0.12700
H3668       H  0.50763089  0.63980701  0.07648733     0.12700
C3669       C  0.51796040  0.69784056  0.09257324     0.62200
F3670       F  0.63397167  0.62503899  0.03836336    -0.23000
F3671       F  0.60871327  0.63187352  0.99347925    -0.20300
F3672       F  0.59854717  0.59014726  0.02387215    -0.20000
F3673       F  0.51324266  0.72494029  0.07631592    -0.20000
F3674       F  0.53067649  0.70390905  0.12143071    -0.20300
F3675       F  0.48879868  0.68343120  0.09844099    -0.23000
C3676       C  0.74857868  0.66291261  0.54783547     0.42400
N3677       N  0.74182552  0.69631111  0.51018021     0.01300
C3678       C  0.85191385  0.79748976  0.93448445    -0.06600
H3679       H  0.84453157  0.81223772  0.55733170     0.06800
C3680       C  0.72063241  0.83937170  0.53519563    -0.06900
Co3681     Co  0.80208643  0.72718694  0.98446460     0.74200
N3682       N  0.82080948  0.78211521  0.52463255    -0.26100
Co3683     Co  0.80001142  0.80870064  0.48900188     0.74100
C3684       C  0.74253870  0.85459701  0.55576011     0.42500
N3685       N  0.69078022  0.77357520  0.50760450     0.00900
N3686       N  0.76778975  0.82881819  0.52080788     0.01000
N3687       N  0.84257195  0.74740856  0.92829742    -0.47000
H3688       H  0.80206624  0.67450301  0.54718080     0.06800
N3689       N  0.81996410  0.75201084  0.52201860     0.01300
N3690       N  0.77944475  0.83183108  0.95073022     0.01000
C3691       C  0.76947168  0.85954647  0.90885797     0.42600
N3692       N  0.69220766  0.74351627  0.50661856    -0.25600
C3693       C  0.79785455  0.68307819  0.92693019    -0.06500
N3694       N  0.72701008  0.67577214  0.52932906    -0.46700
N3695       N  0.79145426  0.85363123  0.93085057    -0.46900
C3696       C  0.77266772  0.66832367  0.90886027     0.42400
N3697       N  0.82633654  0.75693319  0.95249572     0.01300
N3698       N  0.70254641  0.74455439  0.93872553    -0.25600
N3699       N  0.77239394  0.69841377  0.51468938    -0.26100
N3700       N  0.70089917  0.77447186  0.93885522     0.00900
H3701       H  0.67818587  0.70985186  0.91291331     0.06800
H3702       H  0.71950254  0.83793141  0.90808323     0.06800
N3703       N  0.82998552  0.78666859  0.95597769    -0.26100
N3704       N  0.73776111  0.82463872  0.51442235    -0.25800
N3705       N  0.75337680  0.69971680  0.94279398     0.01300
C3706       C  0.84867815  0.75981636  0.56301789     0.42700
C3707       C  0.67132949  0.73108184  0.52760111    -0.07000
N3708       N  0.75006145  0.82438168  0.94441696    -0.25800
H3709       H  0.69549714  0.83982831  0.53518595     0.06800
N3710       N  0.83584185  0.73845926  0.54422363    -0.47000
H3711       H  0.66615959  0.70684608  0.53120127     0.06800
C3712       C  0.66883754  0.76038545  0.90249993     0.42500
C3713       C  0.77896896  0.67833793  0.53825853    -0.06500
Co3714     Co  0.72332922  0.72037535  0.97502710     0.73800
N3715       N  0.66902001  0.78258851  0.52804217    -0.46700
C3716       C  0.86059721  0.77096984  0.91581044     0.42800
N3717       N  0.74576289  0.67948089  0.92119125    -0.46700
Co3718     Co  0.71921299  0.80079952  0.47653228     0.73900
C3719       C  0.74279306  0.83845751  0.91765367    -0.07000
C3720       C  0.83856497  0.78934526  0.54988053    -0.06600
N3721       N  0.78382144  0.70204131  0.94692389    -0.26100
N3722       N  0.77194527  0.84714579  0.54545083    -0.46900
H3723       H  0.85993314  0.82113047  0.93145371     0.06800
C3724       C  0.68405104  0.73381323  0.91618207    -0.07000
Cl3725     Cl  0.76010133  0.76471469  0.48125598    -0.50000
C3726       C  0.65624892  0.75688341  0.54212437     0.42500
H3727       H  0.82242218  0.67808204  0.92708962     0.06800
N3728       N  0.68042677  0.78463722  0.91839356    -0.46700
C3729       C  0.62535344  0.75379450  0.55838193     0.80200
N3730       N  0.61780350  0.76929995  0.58495443    -0.78200
C3731       C  0.59074727  0.76089134  0.60159187     0.82600
N3732       N  0.57325306  0.73608634  0.59259355    -0.78100
C3733       C  0.58129702  0.71991440  0.56731695     0.82700
N3734       N  0.60713451  0.72946025  0.55024334    -0.79800
C3735       C  0.86714543  0.74935104  0.59068141     0.80200
N3736       N  0.86233452  0.71903158  0.59689229    -0.78200
C3737       C  0.88063907  0.70334086  0.61614153     0.82600
N3738       N  0.90354920  0.71860455  0.63093846    -0.78100
C3739       C  0.91012384  0.74876489  0.62571811     0.82700
N3740       N  0.89232920  0.76470339  0.60434781    -0.79800
C3741       C  0.59265649  0.76182698  0.86033543     0.80200
N3742       N  0.62371997  0.76781191  0.86661657    -0.78200
C3743       C  0.63523986  0.75771107  0.89468156     0.82600
N3744       N  0.61627070  0.74054263  0.91485978    -0.78100
C3745       C  0.58583112  0.73423685  0.90841663     0.82700
N3746       N  0.57448887  0.74474816  0.88113424    -0.79800
C3747       C  0.91911394  0.74274946  0.86183377     0.80200
N3748       N  0.92032378  0.71526370  0.87730913    -0.78200
C3749       C  0.90980001  0.71224411  0.90757835     0.82600
N3750       N  0.90011704  0.73705172  0.92232065    -0.78100
C3751       C  0.89228201  0.76221104  0.90581241     0.82700
N3752       N  0.90246963  0.76555153  0.87510919    -0.79800
N3753       N  0.96230197  0.60099120  0.95283063    -0.36700
N3754       N  0.92381292  0.58906234  0.51461789    -0.57200
N3755       N  0.97777155  0.57713828  0.56006981    -0.36700
N3756       N  0.53965888  0.61431688  0.49280557    -0.57200
C3757       C  0.93421636  0.60725603  0.94066451     0.26900
C3758       C  0.48719405  0.61843970  0.93326473     0.26900
C3759       C  0.95426028  0.58213713  0.58070825     0.26900
C3760       C  0.51159430  0.57936920  0.56267686     0.26900
C3761       C  0.90084565  0.58631749  0.98630079     0.35500
C3762       C  0.91046216  0.58036937  0.54266368     0.35500
C3763       C  0.52900766  0.60200198  0.96538183     0.35500
C3764       C  0.53840117  0.59000995  0.51271638     0.35500
C3765       C  0.94019523  0.62297393  0.91200748    -0.22000
C3766       C  0.47429153  0.63410675  0.90889527    -0.22000
C3767       C  0.96677870  0.58903501  0.60966106    -0.22000
C3768       C  0.50640846  0.58180882  0.59482527    -0.22000
C3769       C  0.87243006  0.57984606  0.00214996    -0.23000
C3770       C  0.87839318  0.57554863  0.53891526    -0.23000
C3771       C  0.52327446  0.57068962  0.96829977    -0.23000
C3772       C  0.53023914  0.56350487  0.49734767    -0.23000
C3773       C  0.90427584  0.60299221  0.95706390    -0.18400
C3774       C  0.51866509  0.62149964  0.94201398    -0.18400
C3775       C  0.53720780  0.59420071  0.54518660    -0.18400
C3776       C  0.92369577  0.58932913  0.57136616    -0.18400
H3777       H  0.92423417  0.62902784  0.89406529     0.14500
H3778       H  0.48651613  0.64793802  0.89063342     0.14500
H3779       H  0.95396681  0.59616305  0.63038793     0.14500
H3780       H  0.52345187  0.58927847  0.61175675     0.14500
H3781       H  0.84916699  0.58237591  0.99299117     0.12800
H3782       H  0.86072370  0.57170908  0.55752150     0.12800
H3783       H  0.51243301  0.55583464  0.95155786     0.12800
H3784       H  0.52530144  0.54098368  0.50778155     0.12800
H3785       H  0.96667314  0.59059913  0.97421720     0.26100
H3786       H  0.97436727  0.57477224  0.53611882     0.26100
C3787       C  0.58641885  0.66830329  0.73626935     0.42400
N3788       N  0.54949802  0.70002203  0.74739041     0.01300
C3789       C  0.95447904  0.78772392  0.65047741    -0.06600
H3790       H  0.56808543  0.81911991  0.63497648     0.06800
C3791       C  0.55672404  0.84377811  0.77081491    -0.06900
Co3792     Co  0.01759856  0.72604897  0.69111373     0.74200
N3793       N  0.54839034  0.78594454  0.66934812    -0.26100
Co3794     Co  0.01157312  0.80641054  0.69407546     0.74100
C3795       C  0.57417127  0.86316159  0.74793470     0.42500
N3796       N  0.53925014  0.77514806  0.80084042     0.00900
N3797       N  0.54193350  0.83199039  0.72426375     0.01000
N3798       N  0.96047854  0.73701974  0.64983274    -0.47000
H3799       H  0.57948628  0.67644718  0.68294616     0.06800
N3800       N  0.55201057  0.75619131  0.67243159     0.01300
N3801       N  0.97329064  0.82488329  0.71829378     0.01000
C3802       C  0.93064481  0.84861645  0.73100425     0.42600
N3803       N  0.54277248  0.74567819  0.79743900    -0.25600
C3804       C  0.96218806  0.67525762  0.70063478    -0.06500
N3805       N  0.56910597  0.68055156  0.75972361    -0.46700
N3806       N  0.95230156  0.84419473  0.70754533    -0.46900
C3807       C  0.94695057  0.65960453  0.72840002     0.42400
N3808       N  0.98309576  0.75028141  0.66598655     0.01300
N3809       N  0.97265740  0.73672986  0.79550304    -0.25600
N3810       N  0.55165471  0.70145214  0.71646372    -0.26100
N3811       N  0.96868184  0.76635947  0.79694000     0.00900
H3812       H  0.95156927  0.69799867  0.82128434     0.06800
H3813       H  0.93238063  0.82849650  0.78155070     0.06800
N3814       N  0.98025137  0.78024184  0.66688250    -0.26100
N3815       N  0.53742190  0.82617063  0.75469934    -0.25800
N3816       N  0.98066085  0.69399110  0.74324498     0.01300
C3817       C  0.58495277  0.76956804  0.63447810     0.42700
C3818       C  0.56773938  0.73733202  0.81345897    -0.07000
N3819       N  0.96835099  0.81741048  0.74822633    -0.25800
H3820       H  0.55683124  0.84438132  0.79622710     0.06800
N3821       N  0.57391885  0.74631245  0.65335186    -0.47000
H3822       H  0.57543559  0.71417663  0.81601987     0.06800
C3823       C  0.93477873  0.74633790  0.83056535     0.42500
C3824       C  0.57421846  0.68215323  0.70708637    -0.06500
Co3825     Co  0.01097145  0.71896542  0.77141928     0.73800
N3826       N  0.56020907  0.78722518  0.82018548    -0.46700
C3827       C  0.94124614  0.75862944  0.63885550     0.42800
N3828       N  0.96023684  0.67235498  0.75363617    -0.46700
Co3829     Co  0.00248196  0.79623584  0.77568564     0.73900
C3830       C  0.94119258  0.82909892  0.75741152    -0.07000
C3831       C  0.56792592  0.79635732  0.64544741    -0.06600
N3832       N  0.98265212  0.69621216  0.71226644    -0.26100
N3833       N  0.56334617  0.85513361  0.71899763    -0.46900
H3834       H  0.94539079  0.81036106  0.64824514     0.06800
C3835       C  0.95201316  0.72220096  0.81547436    -0.07000
Cl3836     Cl  0.01068718  0.76182334  0.73311263    -0.50000
C3837       C  0.57987730  0.76486433  0.82860118     0.42500
H3838       H  0.95984401  0.67015727  0.67601559     0.06800
N3839       N  0.94681875  0.77318762  0.81824045    -0.46700
C3840       C  0.73097933  0.87460932  0.58166666     0.80200
N3841       N  0.69891970  0.87412487  0.58587089    -0.78200
C3842       C  0.68459578  0.89130657  0.60755340     0.82600
N3843       N  0.70297128  0.90949904  0.62484427    -0.78100
C3844       C  0.73466355  0.91157066  0.62162522     0.82700
N3845       N  0.74943807  0.89397697  0.59953186    -0.79800
C3846       C  0.73934590  0.64134167  0.57496047     0.80200
N3847       N  0.76053724  0.62494450  0.59227457    -0.78200
C3848       C  0.74978147  0.61010504  0.61971659     0.82600
N3849       N  0.71943574  0.61317057  0.62882892    -0.78100
C3850       C  0.69765900  0.62227479  0.60889883     0.82700
N3851       N  0.70775721  0.63696014  0.58175592    -0.79800
C3852       C  0.77316259  0.63610672  0.89858511     0.80200
N3853       N  0.77659855  0.62789981  0.86766807    -0.78200
C3854       C  0.77327603  0.59761897  0.85988541     0.82600
N3855       N  0.76481010  0.57649707  0.88280360    -0.78100
C3856       C  0.76091897  0.58471975  0.91318728     0.82700
N3857       N  0.76513701  0.61434934  0.92075094    -0.79800
C3858       C  0.75261617  0.93058074  0.86184274     0.80200
N3859       N  0.76999016  0.90656107  0.87231391    -0.78200
C3860       C  0.76022597  0.89093386  0.89964573     0.82600
N3861       N  0.73342671  0.89892977  0.91447524    -0.78100
C3862       C  0.71509134  0.92041496  0.90279144     0.82700
N3863       N  0.72487049  0.93615220  0.87670299    -0.79800
N3864       N  0.64942129  0.54201515  0.54652567    -0.36700
N3865       N  0.58372678  0.98906339  0.58186777    -0.57200
N3866       N  0.61222204  0.93374158  0.55006361    -0.36700
N3867       N  0.66178664  0.97148705  0.02133547    -0.57200
C3868       C  0.61790533  0.53843152  0.55149139     0.26900
C3869       C  0.65792759  0.53133377  0.01813081     0.26900
C3870       C  0.58191821  0.93236216  0.55967404     0.26900
C3871       C  0.61130011  0.92680049  0.01728221     0.26900
C3872       C  0.58334420  0.51375998  0.59123845     0.35500
C3873       C  0.57133796  0.96628918  0.60060791     0.35500
C3874       C  0.68673290  0.48625545  0.01114698     0.35500
C3875       C  0.66578685  0.94388052  0.00907767     0.35500
C3876       C  0.60409481  0.52880437  0.52407852    -0.22000
C3877       C  0.63004621  0.52460978  0.00327913    -0.22000
C3878       C  0.56265426  0.92660998  0.53472533    -0.22000
C3879       C  0.58071745  0.92270311  0.00729891    -0.22000
C3880       C  0.56766764  0.50866505  0.61991082    -0.23000
C3881       C  0.56338455  0.97810643  0.62963941    -0.23000
C3882       C  0.70801021  0.46794500  0.99623935    -0.23000
C3883       C  0.69544255  0.94343650  0.99462007    -0.23000
C3884       C  0.60266012  0.53933992  0.58143441    -0.18400
C3885       C  0.68665037  0.51853737  0.00959808    -0.18400
C3886       C  0.63905018  0.92720628  0.99878180    -0.18400
C3887       C  0.57307935  0.93537036  0.59143736    -0.18400
H3888       H  0.57960105  0.52246673  0.52086093     0.14500
H3889       H  0.62797381  0.51483634  0.98043953     0.14500
H3890       H  0.53728847  0.92382496  0.53548646     0.14500
H3891       H  0.57347134  0.91803918  0.98376192     0.14500
H3892       H  0.56386188  0.52517920  0.63802468     0.12800
H3893       H  0.55228600  0.96626515  0.64966217     0.12800
H3894       H  0.73006092  0.47510185  0.98457852     0.12800
H3895       H  0.70444866  0.92546437  0.98030960     0.12800
H3896       H  0.66675885  0.54571782  0.56290741     0.26100
H3897       H  0.63142640  0.93768354  0.56443601     0.26100
C3898       C  0.59153637  0.89111204  0.75950579     0.80200
N3899       N  0.61690824  0.90678360  0.74486270    -0.78200
C3900       C  0.63340211  0.92862268  0.76137108     0.82600
N3901       N  0.62524203  0.93291136  0.79189254    -0.78100
C3902       C  0.60054362  0.91795634  0.80638043     0.82700
N3903       N  0.58391374  0.89749029  0.78985288    -0.79800
C3904       C  0.89540321  0.58944869  0.71877205     0.80200
N3905       N  0.90707433  0.61892489  0.71463348    -0.78200
C3906       C  0.93307487  0.62818657  0.73077571     0.82600
N3907       N  0.94386285  0.60952111  0.75372928    -0.78100
C3908       C  0.93229459  0.58043776  0.75735052     0.82700
N3909       N  0.90961206  0.57036297  0.73861147    -0.79800
C3910       C  0.60118838  0.63795248  0.74191892     0.80200
N3911       N  0.62807095  0.62794123  0.72674526    -0.78200
C3912       C  0.63993920  0.60012624  0.73596186     0.82600
N3913       N  0.62544541  0.58393729  0.75988424    -0.78100
C3914       C  0.60055733  0.59431963  0.77559035     0.82700
N3915       N  0.58856753  0.62116583  0.76678648    -0.79800
C3916       C  0.88441344  0.91968079  0.74604903     0.80200
N3917       N  0.89743286  0.92554651  0.77432870    -0.78200
C3918       C  0.92214294  0.91015051  0.78449320     0.82600
N3919       N  0.93366809  0.88831227  0.76697607    -0.78100
C3920       C  0.92053027  0.87962222  0.74005906     0.82700
N3921       N  0.89504886  0.89520753  0.72904795    -0.79800
N3922       N  0.94802879  0.98282584  0.90399820    -0.36700
N3923       N  0.50123729  0.91997250  0.91899838    -0.57200
N3924       N  0.53762722  0.99044771  0.91147810    -0.36700
N3925       N  0.49105833  0.53681565  0.89809576    -0.57200
C3926       C  0.93131429  0.95611616  0.90826172     0.26900
C3927       C  0.92672892  0.50283574  0.89458742     0.26900
C3928       C  0.55202070  0.97381411  0.93331502     0.26900
C3929       C  0.55356398  0.52076381  0.91108041     0.26900
C3930       C  0.97330136  0.92667216  0.92954198     0.35500
C3931       C  0.52178399  0.92929862  0.94063526     0.35500
C3932       C  0.96597184  0.54645437  0.88344041     0.35500
C3933       C  0.51647766  0.55384150  0.88752069     0.35500
C3934       C  0.90197141  0.95879557  0.89520378    -0.22000
C3935       C  0.89769510  0.48841505  0.89009037    -0.22000
C3936       C  0.57334557  0.99190230  0.94901960    -0.22000
C3937       C  0.57514499  0.52216474  0.93485726    -0.22000
C3938       C  0.97537151  0.93848971  0.95923140    -0.23000
C3939       C  0.50545609  0.93870972  0.96729318    -0.23000
C3940       C  0.97573997  0.57270839  0.86617474    -0.23000
C3941       C  0.50770432  0.57760701  0.86816497    -0.23000
C3942       C  0.94686343  0.92833651  0.91070851    -0.18400
C3943       C  0.93722805  0.52997216  0.87841678    -0.18400
C3944       C  0.54728883  0.54384364  0.88930401    -0.18400
C3945       C  0.55164112  0.94195018  0.93154199    -0.18400
H3946       H  0.88408935  0.94089287  0.89277438     0.14500
H3947       H  0.87858096  0.49680137  0.87662034     0.14500
H3948       H  0.58823563  0.98430610  0.96746204     0.14500
H3949       H  0.58985536  0.54168617  0.94105452     0.14500
H3950       H  0.95655098  0.94761949  0.97332456     0.12800
H3951       H  0.51537063  0.95050689  0.98702023     0.12800
H3952       H  0.96187205  0.58681645  0.85118702     0.12800
H3953       H  0.52294002  0.59399931  0.85506639     0.12800
H3954       H  0.97164972  0.98558231  0.90884115     0.26100
H3955       H  0.52174052  0.98203346  0.89517107     0.26100
C3956       C  0.66085719  0.94842351  0.74942785     0.42400
N3957       N  0.69602190  0.98538485  0.75329685     0.01300
C3958       C  0.79119281  0.56538884  0.64214308    -0.06600
H3959       H  0.80321069  0.94101057  0.64114814     0.06800
C3960       C  0.84246419  0.95696899  0.76356651    -0.06900
Co3961     Co  0.72273086  0.51073271  0.69153827     0.74200
N3962       N  0.77547725  0.97230294  0.66854293    -0.26100
Co3963     Co  0.80529404  0.50604971  0.68788900     0.74100
C3964       C  0.85625349  0.93848820  0.73902457     0.42500
N3965       N  0.77741744  0.98434483  0.80036645     0.00900
N3966       N  0.82784679  0.97390240  0.71832819     0.01000
N3967       N  0.73921299  0.56336396  0.64939940    -0.47000
H3968       H  0.66582385  0.95069955  0.69510652     0.06800
N3969       N  0.74472513  0.97476546  0.67209208     0.01300
N3970       N  0.83201886  0.54063642  0.70886351     0.01000
C3971       C  0.86194887  0.58096864  0.71605606     0.42600
N3972       N  0.74664190  0.98651190  0.79935634    -0.25600
C3973       C  0.68056279  0.56954778  0.70145649    -0.06500
N3974       N  0.67636608  0.96662938  0.76958218    -0.46700
N3975       N  0.85201330  0.56075248  0.69444932    -0.46900
C3976       C  0.67198334  0.58900035  0.72818133     0.42400
N3977       N  0.75126569  0.54021030  0.66381766     0.01300
N3978       N  0.75225387  0.55369929  0.79259988    -0.25600
N3979       N  0.69474300  0.98126066  0.72279717    -0.26100
N3980       N  0.78294040  0.55145914  0.79324397     0.00900
H3981       H  0.71990723  0.58031661  0.81917514     0.06800
H3982       H  0.84883333  0.57938194  0.76900456     0.06800
N3983       N  0.78215418  0.54026831  0.66079430    -0.26100
N3984       N  0.82620070  0.97824945  0.74903079    -0.25800
N3985       N  0.70382430  0.55327624  0.74257870     0.01300
C3986       C  0.74873707  0.93584647  0.64175584     0.42700
C3987       C  0.73301759  0.96477189  0.81790627    -0.07000
N3988       N  0.82920178  0.54508194  0.73938021    -0.25800
H3989       H  0.84624728  0.95596452  0.78862799     0.06800
N3990       N  0.72866365  0.95390459  0.65685907    -0.47000
H3991       H  0.70804092  0.96146411  0.82221333     0.06800
C3992       C  0.77294721  0.58731789  0.82662075     0.42500
C3993       C  0.67298301  0.95842330  0.71781034    -0.06500
Co3994     Co  0.72404376  0.52017282  0.77132207     0.73800
N3995       N  0.78571976  0.96228277  0.82045875    -0.46700
C3996       C  0.76162688  0.58119820  0.63467299     0.42800
N3997       N  0.68767245  0.57658717  0.75250504    -0.46700
Co3998     Co  0.80515255  0.01515667  0.77118569     0.73900
C3999       C  0.84556032  0.57072170  0.74564352    -0.07000
C4000       C  0.78049894  0.94817287  0.64947436    -0.06600
N4001       N  0.70056551  0.54859139  0.71239312    -0.26100
N4002       N  0.84662579  0.95089972  0.71117749    -0.46900
H4003       H  0.81517887  0.57248557  0.63594915     0.06800
C4004       C  0.74388426  0.57567714  0.81239310    -0.07000
Cl4005     Cl  0.76402438  0.51269230  0.73038714    -0.50000
C4006       C  0.75845747  0.94844148  0.83197061     0.42500
H4007       H  0.67144330  0.57020916  0.67812029     0.06800
N4008       N  0.79590655  0.57018664  0.81397249    -0.46700
C4009       C  0.91210797  0.89593949  0.83999893    -0.05800
C4010       C  0.93177290  0.91096746  0.81707581     0.00100
C4011       C  0.96224144  0.92118542  0.82498876    -0.08500
C4012       C  0.96859752  0.92421714  0.85683056    -0.05900
C4013       C  0.94718348  0.91250408  0.88037188     0.00100
C4014       C  0.92066520  0.89469815  0.87155739    -0.08400
C4015       C  0.90110752  0.87454577  0.89461525     0.62000
H4016       H  0.89046802  0.88438399  0.83307748     0.12700
H4017       H  0.98936897  0.93736728  0.86329788     0.12700
C4018       C  0.98794493  0.92760253  0.80014374     0.62200
F4019       F  0.87024594  0.88327617  0.89517544    -0.23000
F4020       F  0.91236689  0.87565258  0.92480773    -0.20300
F4021       F  0.90194833  0.84462122  0.88498490    -0.20000
F4022       F  0.97810951  0.94793286  0.77763820    -0.20000
F4023       F  0.99511923  0.90060788  0.78586778    -0.20300
F4024       F  0.01511452  0.93952782  0.81293917    -0.23000
C4025       C  0.56727416  0.55530773  0.80321833    -0.05800
C4026       C  0.59027357  0.57851075  0.80486704     0.00100
C4027       C  0.60601457  0.58333817  0.83330328    -0.08500
C4028       C  0.59450917  0.56760427  0.86080422    -0.05900
C4029       C  0.56756749  0.54822130  0.86011559     0.00100
C4030       C  0.55662547  0.53888023  0.83028516    -0.08400
C4031       C  0.53527123  0.51086011  0.82645825     0.62000
H4032       H  0.55774353  0.55015080  0.78047437     0.12700
H4033       H  0.60486351  0.57212507  0.88324422     0.12700
C4034       C  0.63366256  0.60619064  0.83449782     0.62200
F4035       F  0.50533960  0.51589638  0.83723732    -0.23000
F4036       F  0.53381102  0.50268420  0.79527184    -0.20300
F4037       F  0.54679286  0.48655529  0.84292310    -0.20000
F4038       F  0.62362682  0.63526043  0.82795302    -0.20000
F4039       F  0.65680860  0.59919006  0.81276186    -0.20300
F4040       F  0.64711027  0.60609114  0.86356878    -0.23000
C4041       C  0.91035594  0.57499144  0.81063485    -0.05800
C4042       C  0.93218422  0.56514810  0.78808883     0.00100
C4043       C  0.94727245  0.53760113  0.79292138    -0.08500
C4044       C  0.94249075  0.52209538  0.82200633    -0.05900
C4045       C  0.92490010  0.53493688  0.84647502     0.00100
C4046       C  0.90595176  0.55967095  0.83980945    -0.08400
C4047       C  0.88151333  0.56949113  0.86339199     0.62000
H4048       H  0.89664649  0.59463318  0.80502438     0.12700
H4049       H  0.95498763  0.50158880  0.82709179     0.12700
C4050       C  0.96935906  0.52596515  0.76790371     0.62200
F4051       F  0.86740089  0.59557797  0.85305268    -0.23000
F4052       F  0.89517798  0.57498538  0.89181329    -0.20300
F4053       F  0.85835346  0.54672272  0.86775745    -0.20000
F4054       F  0.99223679  0.54832051  0.75993900    -0.20000
F4055       F  0.95281621  0.51842401  0.74145538    -0.20300
F4056       F  0.98415224  0.50046489  0.77833634    -0.23000
C4057       C  0.59247195  0.95163766  0.88792751    -0.05800
C4058       C  0.57062532  0.93071480  0.90336475     0.00100
C4059       C  0.56590048  0.90195298  0.88915656    -0.08500
C4060       C  0.57541587  0.89897900  0.85734153    -0.05900
C4061       C  0.59255478  0.92250912  0.84031076     0.00100
C4062       C  0.60217816  0.94909457  0.85645441    -0.08400
C4063       C  0.62093075  0.97589997  0.84067810     0.62000
H4064       H  0.60072743  0.97156366  0.89999612     0.12700
H4065       H  0.57021900  0.87750496  0.84604618     0.12700
C4066       C  0.55434966  0.87313450  0.90703207     0.62200
F4067       F  0.62386873  0.00080426  0.85998963    -0.23000
F4068       F  0.60632936  0.98566392  0.81377745    -0.20300
F4069       F  0.65078946  0.96702889  0.83299370    -0.20000
F4070       F  0.52438035  0.86466851  0.89794354    -0.20000
F4071       F  0.55443877  0.87666363  0.93924860    -0.20300
F4072       F  0.57412968  0.84967460  0.90018465    -0.23000
C4073       C  0.64414614  0.94884398  0.94554655    -0.05800
C4074       C  0.63799949  0.92231732  0.96439248     0.00100
C4075       C  0.64657594  0.89405268  0.95258001    -0.08500
C4076       C  0.66876557  0.89431402  0.92780482    -0.05900
C4077       C  0.68286190  0.92198160  0.91594855     0.00100
C4078       C  0.66830215  0.94967561  0.92234252    -0.08400
C4079       C  0.68154806  0.98044747  0.91013410     0.62000
H4080       H  0.63650503  0.97020990  0.95454904     0.12700
H4081       H  0.67813777  0.87279344  0.92074580     0.12700
C4082       C  0.63775843  0.86386065  0.96894725     0.62200
F4083       F  0.66112239  0.00324503  0.91691167    -0.23000
F4084       F  0.68600635  0.98067797  0.87797460    -0.20300
F4085       F  0.71000974  0.98705499  0.92384897    -0.20000
F4086       F  0.61276452  0.86619974  0.99002609    -0.20000
F4087       F  0.66341709  0.85372244  0.98477897    -0.18800
F4088       F  0.62925790  0.84253881  0.94690645    -0.23000
C4089       C  0.69344422  0.54501078  0.95802150    -0.05800
C4090       C  0.70749410  0.53530853  0.98578228     0.00100
C4091       C  0.74034164  0.54094906  0.98904361    -0.08500
C4092       C  0.75774482  0.55552219  0.96388131    -0.05900
C4093       C  0.74337896  0.56440540  0.93598750     0.00100
C4094       C  0.71066217  0.55927176  0.93302682    -0.08400
C4095       C  0.69357313  0.56985036  0.90404676     0.62000
H4096       H  0.66848982  0.54137262  0.95583624     0.12700
H4097       H  0.78262972  0.56087446  0.96640644     0.12700
C4098       C  0.75803293  0.53373658  0.01863539     0.62200
F4099       F  0.66137671  0.56456187  0.90736369    -0.23000
F4100       F  0.70390393  0.55424651  0.87810033    -0.20300
F4101       F  0.69921427  0.60090367  0.89888392    -0.20000
F4102       F  0.78212359  0.51456813  0.01139177    -0.20000
F4103       F  0.77093056  0.56064505  0.03002396    -0.20300
F4104       F  0.73927732  0.51988273  0.04229304    -0.23000
C4105       C  0.61253896  0.59119063  0.60300736    -0.05800
C4106       C  0.61783290  0.55957516  0.60467903     0.00100
C4107       C  0.64607632  0.55016679  0.61748255    -0.08500
C4108       C  0.67140299  0.57134656  0.61647262    -0.05900
C4109       C  0.66793970  0.60281996  0.61063392     0.00100
C4110       C  0.63714385  0.61317613  0.60826580    -0.08400
C4111       C  0.63049786  0.64635937  0.61309202     0.62000
H4112       H  0.58968854  0.59843123  0.59624560     0.12700
H4113       H  0.69442245  0.56255541  0.61805946     0.12700
C4114       C  0.65104872  0.51716761  0.62741438     0.62200
F4115       F  0.59856021  0.65100455  0.61347590    -0.23000
F4116       F  0.64506664  0.66450781  0.58955268    -0.20300
F4117       F  0.64188080  0.65504231  0.64185758    -0.20000
F4118       F  0.64930947  0.49808659  0.60201846    -0.20000
F4119       F  0.62829095  0.50804008  0.64974862    -0.20300
F4120       F  0.68003658  0.51388854  0.64082675    -0.23000
C4121       C  0.59422303  0.88347479  0.59864761    -0.05800
C4122       C  0.58641607  0.91113537  0.61280338     0.00100
C4123       C  0.60635570  0.92022573  0.63672293    -0.08500
C4124       C  0.63841635  0.91473272  0.63326553    -0.05900
C4125       C  0.64940617  0.89338609  0.61157838     0.00100
C4126       C  0.62609885  0.87521619  0.59617815    -0.08400
C4127       C  0.63441781  0.84986707  0.57450288     0.62000
H4128       H  0.57718333  0.87307025  0.58330138     0.12700
H4129       H  0.65419651  0.92483417  0.64994821     0.12700
C4130       C  0.59357132  0.92259605  0.66972842     0.62200
F4131       F  0.60802227  0.83328494  0.56530171    -0.23000
F4132       F  0.65387997  0.82982041  0.58931800    -0.20300
F4133       F  0.64914845  0.86281133  0.54791992    -0.20000
F4134       F  0.56117679  0.91837811  0.67147110    -0.20000
F4135       F  0.60238464  0.95052747  0.68196510    -0.20300
F4136       F  0.60595129  0.89940873  0.68730997    -0.23000
C4137       C  0.87084565  0.63258230  0.92011608    -0.05800
C4138       C  0.88022129  0.62684178  0.95101750     0.00100
C4139       C  0.88337460  0.65322093  0.96915381    -0.08500
C4140       C  0.89803510  0.67920132  0.95455829    -0.05900
C4141       C  0.89830408  0.68248543  0.92156356     0.00100
C4142       C  0.87904119  0.66115287  0.90498014    -0.08400
C4143       C  0.86727450  0.66817244  0.87233759     0.62000
H4144       H  0.86001799  0.61420812  0.90734362     0.12700
H4145       H  0.90552136  0.69826829  0.96872069     0.12700
C4146       C  0.86300741  0.65667961  0.99854602     0.62200
F4147       F  0.89157548  0.66677047  0.85026503    -0.23000
F4148       F  0.85506516  0.69699160  0.87129766    -0.20300
F4149       F  0.84349520  0.64764123  0.86440178    -0.20000
F4150       F  0.86298875  0.68676943  0.00778070    -0.20000
F4151       F  0.87333639  0.63933352  0.02318029    -0.20300
F4152       F  0.83236730  0.64732404  0.99260008    -0.23000
C4153       C  0.52138483  0.67921841  0.94044935    -0.05800
C4154       C  0.53662895  0.65141071  0.93672875     0.00100
C4155       C  0.56909036  0.65231881  0.92847753    -0.08500
C4156       C  0.58514547  0.68061988  0.92418309    -0.05900
C4157       C  0.56917197  0.70787664  0.92412746     0.00100
C4158       C  0.53684284  0.70751235  0.93258335    -0.08400
C4159       C  0.51874842  0.73669416  0.93229020     0.62000
H4160       H  0.49684997  0.67857924  0.94789333     0.12700
H4161       H  0.60982131  0.68147303  0.91715995     0.12700
C4162       C  0.58535089  0.62387639  0.91880804     0.62200
F4163       F  0.48943151  0.73241022  0.94691619    -0.23000
F4164       F  0.51443495  0.74641468  0.90157881    -0.20300
F4165       F  0.53527994  0.75930027  0.94786350    -0.20000
F4166       F  0.58873495  0.60383592  0.94387333    -0.20000
F4167       F  0.61495950  0.63060795  0.90588237    -0.20300
F4168       F  0.56724677  0.61012749  0.89642415    -0.23000
C4169       C  0.91070802  0.67391462  0.58055808    -0.05800
C4170       C  0.88893635  0.67324052  0.60560188     0.00100
C4171       C  0.87837112  0.64541928  0.61991087    -0.08500
C4172       C  0.89014147  0.61816314  0.60803806    -0.05900
C4173       C  0.91271329  0.61881689  0.58308772     0.00100
C4174       C  0.92381952  0.64763695  0.56939789    -0.08400
C4175       C  0.94812698  0.65365896  0.54252451     0.62000
H4176       H  0.91831440  0.69589645  0.56995640     0.12700
H4177       H  0.88207885  0.59625453  0.61824647     0.12700
C4178       C  0.85506264  0.64518372  0.64732706     0.62200
F4179       F  0.96973803  0.67612846  0.55083487    -0.23000
F4180       F  0.93349239  0.66440907  0.51619843    -0.20300
F4181       F  0.96478883  0.62898093  0.53413573    -0.20000
F4182       F  0.82797570  0.65902447  0.63825861    -0.20000
F4183       F  0.86800858  0.66106159  0.67189784    -0.20300
F4184       F  0.84704975  0.61583812  0.65786937    -0.23000
C4185       C  0.58718180  0.66887756  0.54558171    -0.05800
C4186       C  0.56822081  0.68814763  0.56306913     0.00100
C4187       C  0.53996477  0.67550442  0.57747690    -0.08500
C4188       C  0.53136860  0.64474020  0.57190888    -0.05900
C4189       C  0.55093533  0.62494879  0.55519329     0.00100
C4190       C  0.58015714  0.63775974  0.54249991    -0.08400
C4191       C  0.60495976  0.62106976  0.52405756     0.62000
H4192       H  0.60906708  0.67783362  0.53475174     0.12700
H4193       H  0.50821187  0.63669272  0.57964726     0.12700
C4194       C  0.51852867  0.69376785  0.59851467     0.62200
F4195       F  0.63386532  0.62520651  0.53774350    -0.23000
F4196       F  0.60733142  0.63306329  0.49368604    -0.20300
F4197       F  0.59863378  0.59037127  0.52274786    -0.20000
F4198       F  0.51098321  0.72062581  0.58325836    -0.20000
F4199       F  0.53344559  0.70022726  0.62617563    -0.20300
F4200       F  0.49064181  0.67783219  0.60670377    -0.23000
loop_ 
_geom_bond_atom_site_label_1 
_geom_bond_atom_site_label_2 
_geom_bond_distance 
_geom_bond_site_symmetry_2 
_ccdc_geom_bond_type 
C1           N19   1.356       .  A
C1           C38   1.482       .  S
C1          C171   1.512       .  S
N2           N19   1.327       .  A
N2           N24   1.319       .  A
N2         Co564   2.118   1_554  S
C3           N28   1.353       .  A
C3           C41   1.476       .  S
C3           H48   1.081       .  S
H4           C45   1.081       .  S
C5           N29   1.327       .  A
C5            C9   1.450       .  S
C5           H34   1.074       .  S
Co6          N46   2.109       .  S
Co6          N22   2.093       .  S
Co6         N549   2.133       .  S
Co6         N539   2.107       .  S
Co6        Cl575   2.398       .  S
N7           C45   1.368       .  A
N7           N14   1.324       .  A
N7           Co8   2.131   1_554  S
Co8          N11   2.142   1_556  S
Co8         N553   2.106       .  S
Co8         N540   2.120       .  S
Co8         Cl50   2.546       .  S
C9           N47   1.371       .  A
C9          C165   1.509       .  S
N10          N17   1.321       .  A
N10          N40   1.329       .  A
N10         Co43   2.090   1_554  S
N11          N29   1.322       .  A
N11          N47   1.346       .  A
N12          C41   1.354       .  A
N12          N22   1.312       .  A
H13          C38   1.082       .  S
N14          N35   1.317       .  A
N14        Co531   2.113   1_554  S
N15          N33   1.315       .  A
N15          N20   1.337       .  A
N15        Co533   2.132       .  S
C16          N20   1.368       .  A
C16          C44   1.470       .  S
C16         C185   1.491       .  S
N17          C32   1.331       .  A
N17        Co564   2.083   1_554  S
C18          N46   1.348       .  A
C18          C21   1.477       .  S
C18          H52   1.079       .  S
C21          N42   1.361       .  A
C21         C177   1.490       .  S
N22          N28   1.318       .  A
N23          C49   1.335       .  A
N23          N25   1.314       .  A
N23         Co39   2.082       .  S
N24          C38   1.362       .  A
N24        Co531   2.132   1_554  S
N25          N53   1.328       .  A
N25        Co568   2.085       .  S
H26          C49   1.082       .  S
H27          C44   1.081       .  S
N28        Co533   2.097       .  S
N29         Co43   2.092   1_554  S
N30          N42   1.329       .  A
N30          N46   1.311       .  A
N30         Co39   2.094       .  S
C31          N35   1.350       .  A
C31          C45   1.485       .  S
C31          C60   1.506       .  S
C32          C51   1.458       .  S
C32          H36   1.081       .  S
N33          C44   1.331       .  A
N33        Co568   2.084       .  S
C37          N53   1.356       .  A
C37          C49   1.469       .  S
C37          C68   1.470       .  S
Co39        N527   2.113       .  S
Co39        N542   2.093       .  S
Co39       Cl575   2.477       .  S
N40          C51   1.351       .  A
C41          C76   1.474       .  S
Co43        N550   2.095       .  S
Co43        N558   2.098       .  S
Co43        Cl50   2.412       .  S
Cl50       Co531   2.403       .  S
Cl50       Co564   2.471       .  S
C51          C54   1.462       .  S
C54          N55   1.366       .  A
C54          N59   1.353       .  A
N55          C56   1.365       .  A
C56          N57   1.360       .  A
C56         C142   1.468       .  S
N57          C58   1.346       .  A
C58          N59   1.349       .  A
C58         C511   1.496       .  S
C60          N61   1.356       .  A
C60          N65   1.391       .  A
N61          C62   1.341       .  A
C62          N63   1.341       .  A
C62         C495   1.461       .  S
N63          C64   1.355       .  A
C64          N65   1.391       .  A
C64         C152   1.507       .  S
C66          N67   1.371       .  A
C66          N71   1.355       .  A
C66         C162   1.471       .  S
N67          C68   1.369       .  A
C68          N69   1.354       .  A
N69          C70   1.345       .  A
C70          N71   1.349       .  A
C70         C482   1.463       .  S
C72          N73   1.359       .  A
C72          N77   1.374       .  A
C72         C148   1.478       .  S
N73          C74   1.350       .  A
C74          N75   1.337       .  A
C74         C466   1.472       .  S
N75          C76   1.347       .  A
C76          N77   1.372       .  A
N78          C82   1.353       .  A
N78        C2183   1.353       .  A
N78         H110   1.034       .  S
N79          C87   1.347       .  A
N79         C611   1.350   1_554  A
N80          C84   1.344       .  A
N80        C2185   1.359       .  A
N80         H111   1.038       .  S
N81          C89   1.338   1_556  A
N81         C613   1.330       .  A
C82          C90   1.395       .  A
C82          C98   1.438       .  A
C83        N2178   1.356   1_455  A
C83          C99   1.418       .  A
C83          C91   1.384   1_455  A
C84          C92   1.389       .  A
C84         C101   1.416       .  A
C85        N2180   1.359   1_455  A
C85         C100   1.426       .  A
C85          C93   1.387       .  A
C86         N604   1.351       .  A
C86          C98   1.420       .  A
C86          C94   1.385       .  A
C87         C101   1.413       .  A
C87          C95   1.387       .  A
C88         N606   1.333       .  A
C88          C96   1.383       .  A
C88          C99   1.387       .  A
C89          C97   1.386   1_554  A
C89         C100   1.396       .  A
C90         H102   1.061       .  S
C90        C2191   1.365       .  A
C91         H103   1.081   1_655  S
C91        C2190   1.374       .  A
C92         H104   1.082       .  S
C92        C2193   1.381       .  A
C93         H105   1.083       .  S
C93        C2192   1.384   1_455  A
C94         H106   1.083       .  S
C94         C620   1.383       .  A
C95         H107   1.082       .  S
C95         C619   1.383       .  A
C96         H108   1.076       .  S
C96         C622   1.372       .  A
C97         H109   1.082   1_556  S
C97         C621   1.374       .  A
C98         C463   1.507       .  S
C99         C479   1.496       .  S
C100        C514   1.526       .  S
C101        C498   1.485       .  S
C112        N130   1.355       .  A
C112        C149   1.484       .  S
C112        C235   1.500       .  S
N113        N130   1.321       .  A
N113        N135   1.315       .  A
N113      Co2250   2.093       .  S
C114        N139   1.366       .  A
C114        C152   1.480       .  S
C114        H159   1.081       .  S
H115        C156   1.082       .  S
C116        N140   1.322       .  A
C116        C120   1.449       .  S
C116        H145   1.081       .  S
Co117       N157   2.100       .  S
Co117       N133   2.128       .  S
Co117      N2235   2.142       .  S
Co117      N2225   2.076       .  S
Co117      Cl161   2.427       .  S
N118        C156   1.353       .  A
N118        N125   1.322       .  A
N118      Co2219   2.118       .  S
Co119       N139   2.125       .  S
Co119       N126   2.104       .  S
Co119      N2218   2.116       .  S
Co119      N2222   2.153       .  S
Co119      Cl161   2.529       .  S
C120        N158   1.375       .  A
C120        C223   1.503       .  S
N121        N128   1.315       .  A
N121        N151   1.332       .  A
N121      Co2254   2.114       .  S
N122        N140   1.319       .  A
N122        N158   1.345       .  A
N122      Co2219   2.156       .  S
N123        C152   1.355       .  A
N123        N133   1.320       .  A
H124        C149   1.082       .  S
N125        N146   1.312       .  A
N125      Co2217   2.069       .  S
N126        N144   1.318       .  A
N126        N131   1.337       .  A
C127        N131   1.362       .  A
C127        C155   1.484       .  S
C127        C245   1.498       .  S
N128        C143   1.335       .  A
N128      Co2250   2.065       .  S
C129        N157   1.350       .  A
C129        C132   1.471       .  S
C129        H163   1.082       .  S
C132        N153   1.350       .  A
C132        C231   1.473       .  S
N133        N139   1.324       .  A
N134        C160   1.339       .  A
N134        N136   1.317       .  A
N134       Co150   2.099       .  S
N135        C149   1.362       .  A
N135      Co2217   2.128       .  S
N136        N164   1.329       .  A
N136       Co154   2.076       .  S
H137        C160   1.082       .  S
H138        C155   1.082       .  S
N140      Co2254   2.066       .  S
N141        N153   1.320       .  A
N141        N157   1.318       .  A
N141       Co150   2.084       .  S
C142        N146   1.342       .  A
C142        C156   1.478       .  S
C143        C162   1.460       .  S
C143        H147   1.082       .  S
N144        C155   1.337       .  A
N144       Co154   2.126       .  S
C148        N164   1.352       .  A
C148        C160   1.466       .  S
Co150      N2213   2.107       .  S
Co150      N2228   2.089       .  S
Co150      Cl161   2.459       .  S
N151        C162   1.358       .  A
Co154      N2221   2.133       .  S
Co154      N2240   2.068       .  S
Co154      Cl161   2.419       .  S
C165        N166   1.372       .  A
C165        N170   1.384       .  A
N166        C167   1.354       .  A
C167        N168   1.346       .  A
C167        C450   1.519       .  S
N168        C169   1.359       .  A
C169        N170   1.381       .  A
C169        C311   1.501       .  S
C171        N172   1.394       .  A
C171        N176   1.372       .  A
N172        C173   1.384       .  A
C173        N174   1.347       .  A
C173        C321   1.515       .  S
N174        C175   1.334       .  A
C175        N176   1.357       .  A
C175        C434   1.493       .  S
C177        N178   1.380       .  A
C177        N182   1.351       .  A
N178        C179   1.381       .  A
C179        N180   1.359       .  A
C179        C317   1.501       .  S
N180        C181   1.357       .  A
C181        N182   1.349       .  A
C181        C418   1.469       .  S
C183        N184   1.381       .  A
C183        N188   1.359       .  A
C183        C331   1.489       .  S
N184        C185   1.380       .  A
C185        N186   1.352       .  A
N186        C187   1.342       .  A
C187        N188   1.344       .  A
C187        C402   1.479       .  S
N189        C193   1.355       .  A
N189        C719   1.339       .  A
N189        H221   1.040       .  S
N190        C198   1.345       .  A
N190       C1247   1.345       .  A
N191        C195   1.341       .  A
N191        C721   1.342       .  A
N191        H222   1.046       .  S
N192        C200   1.340       .  A
N192       C1249   1.343       .  A
C193        C201   1.387       .  A
C193        C209   1.413       .  A
C194        N714   1.336       .  A
C194        C210   1.402       .  A
C194        C202   1.385       .  A
C195        C203   1.380       .  A
C195        C212   1.402       .  A
C196        N716   1.342       .  A
C196        C211   1.404       .  A
C196        C204   1.388       .  A
C197       N1240   1.345   1_545  A
C197        C209   1.413       .  A
C197        C205   1.383       .  A
C198        C212   1.423       .  A
C198        C206   1.389       .  A
C199       N1242   1.346       .  A
C199        C207   1.384       .  A
C199        C210   1.411   1_565  A
C200        C208   1.391       .  A
C200        C211   1.412       .  A
C201        H213   1.082       .  S
C201        C727   1.371       .  A
C202        H214   1.075       .  S
C202        C726   1.374       .  A
C203        H215   1.082       .  S
C203        C729   1.388       .  A
C204        H216   1.081       .  S
C204        C728   1.391       .  A
C205        H217   1.082       .  S
C205       C1256   1.392   1_545  A
C206        H218   1.074       .  S
C206       C1255   1.391       .  A
C207        H219   1.082       .  S
C207       C1258   1.380       .  A
C208        H220   1.081       .  S
C208       C1257   1.380       .  A
C209        C431   1.487       .  S
C210        C415   1.482       .  S
C211        C399   1.483       .  S
C212        C447   1.522       .  S
C223        N224   1.382       .  A
C223        N228   1.361       .  A
N224        C225   1.379       .  A
C225        N226   1.349       .  A
C225        C281   1.490       .  S
N226        C227   1.340       .  A
C227        N228   1.344       .  A
C227        C386   1.487       .  S
C229        N230   1.369       .  A
C229        N234   1.346       .  A
C229        C296   1.464       .  S
N230        C231   1.370       .  A
C231        N232   1.358       .  A
N232        C233   1.352       .  A
C233        N234   1.337       .  A
C233        C367   1.457       .  S
C235        N236   1.385       .  A
C235        N240   1.353       .  A
N236        C237   1.386       .  A
C237        N238   1.355       .  A
C237        C301   1.495       .  S
N238        C239   1.344       .  A
C239        N240   1.343       .  A
C239        C351   1.470       .  S
C241        N242   1.363       .  A
C241        N246   1.390       .  A
C241        C289   1.516       .  S
N242        C243   1.349       .  A
C243        N244   1.330       .  A
C243        C335   1.460       .  S
N244        C245   1.345       .  A
C245        N246   1.391       .  A
N247        C251   1.348       .  A
N247       C1302   1.351       .  A
N247        H279   1.038       .  S
N248        C256   1.348       .  A
N248       C2355   1.348   1_455  A
N249        C253   1.349       .  A
N249       C1304   1.334       .  A
N249        H280   1.042       .  S
N250        C258   1.351   1_655  A
N250       C2357   1.349       .  A
C251        C259   1.383       .  A
C251        C267   1.405       .  A
C252       N1297   1.352   1_545  A
C252        C268   1.411       .  A
C252        C260   1.385   1_545  A
C253        C261   1.383       .  A
C253        C270   1.410       .  A
C254       N1299   1.345   1_545  A
C254        C269   1.401       .  A
C254        C262   1.385       .  A
C255       N2348   1.350       .  A
C255        C267   1.406       .  A
C255        C263   1.382       .  A
C256        C270   1.411       .  A
C256        C264   1.391       .  A
C257       N2350   1.347       .  A
C257        C265   1.392       .  A
C257        C268   1.415       .  A
C258        C266   1.379   1_455  A
C258        C269   1.403       .  A
C259        H271   1.076       .  S
C259       C1310   1.374       .  A
C260        H272   1.083   1_565  S
C260       C1309   1.374       .  A
C261        H273   1.082       .  S
C261       C1312   1.384       .  A
C262        H274   1.080       .  S
C262       C1311   1.383   1_545  A
C263        H275   1.083       .  S
C263       C2364   1.370       .  A
C264        H276   1.079       .  S
C264       C2363   1.372   1_455  A
C265        H277   1.080       .  S
C265       C2366   1.362       .  A
C266        H278   1.080   1_655  S
C266       C2365   1.356       .  A
C267        C338   1.488       .  S
C268        C370   1.485       .  S
C269        C354   1.488       .  S
C270        C383   1.523       .  S
C281        N299   1.354       .  A
C281        C318   1.470       .  S
N282        N299   1.320       .  A
N282        N304   1.315       .  A
N282      Co1369   2.110       .  S
C283        N308   1.376       .  A
C283        C321   1.494       .  S
C283        H328   1.080       .  S
H284        C325   1.081       .  S
C285        N309   1.333       .  A
C285        C289   1.461       .  S
C285        H314   1.082       .  S
Co286       N326   2.128       .  S
Co286       N302   2.082       .  S
Co286      N1354   2.111   1_545  S
Co286      N1344   2.086   1_545  S
Co286      Cl330   2.440       .  S
N287        C325   1.370       .  A
N287        N294   1.323       .  A
N287      Co1338   2.155       .  S
Co288       N308   2.144       .  S
Co288       N295   2.088       .  S
Co288      N1337   2.135   1_545  S
Co288      N1341   2.157   1_545  S
Co288      Cl330   2.511       .  S
C289        N327   1.372       .  A
N290        N297   1.318       .  A
N290        N320   1.338       .  A
N290       Co323   2.112       .  S
N291        N309   1.326       .  A
N291        N327   1.346       .  A
N291      Co1338   2.157       .  S
N292        C321   1.347       .  A
N292        N302   1.305       .  A
H293        C318   1.078       .  S
N294        N315   1.313       .  A
N294      Co1336   2.075       .  S
N295        N313   1.321       .  A
N295        N300   1.327       .  A
C296        N300   1.354       .  A
C296        C324   1.474       .  S
N297        C312   1.331       .  A
N297      Co1369   2.088       .  S
C298        N326   1.359       .  A
C298        C301   1.481       .  S
C298        H332   1.079       .  S
C301        N322   1.355       .  A
N302        N308   1.318       .  A
N303        C329   1.345       .  A
N303        N305   1.315       .  A
N303       Co319   2.102       .  S
N304        C318   1.357       .  A
N304      Co1336   2.084       .  S
N305        N333   1.337       .  A
N305      Co1373   2.127       .  S
H306        C329   1.081       .  S
H307        C324   1.082       .  S
N309       Co323   2.112       .  S
N310        N322   1.322       .  A
N310        N326   1.314       .  A
N310       Co319   2.086       .  S
C311        N315   1.343       .  A
C311        C325   1.491       .  S
C312        C331   1.458       .  S
C312        H316   1.079       .  S
N313        C324   1.334       .  A
N313      Co1373   2.103       .  S
C317        N333   1.366       .  A
C317        C329   1.470       .  S
Co319      N1332   2.106   1_545  S
Co319      N1347   2.082   1_545  S
Co319      Cl330   2.445       .  S
N320        C331   1.362       .  A
Co323      N1355   2.124       .  S
Co323      N1363   2.094       .  S
Co323     Cl1380   2.434       .  S
Cl330     Co1373   2.445       .  S
C334        H341   1.085       .  S
C334        C335   1.400       .  A
C334        C339   1.399       .  A
C335        C336   1.409       .  A
C336        C337   1.401       .  A
C336        C343   1.521       .  S
C337        H342   1.079       .  S
C337        C338   1.415       .  A
C338        C339   1.418       .  A
C339        C340   1.518       .  S
C340        F344   1.383       .  S
C340        F345   1.384       .  S
C340        F346   1.383       .  S
C343        F347   1.379       .  S
C343        F348   1.383       .  S
C343        F349   1.383       .  S
C350        H357   1.084       .  S
C350        C351   1.394       .  A
C350        C355   1.399       .  A
C351        C352   1.417       .  A
C352        C353   1.406       .  A
C352        C359   1.520       .  S
C353        H358   1.074       .  S
C353        C354   1.402       .  A
C354        C355   1.421       .  A
C355        C356   1.515       .  S
C356        F360   1.377       .  S
C356        F361   1.385   1_545  S
C356        F362   1.365   1_545  S
C359        F363   1.381       .  S
C359        F364   1.384       .  S
C359        F365   1.376       .  S
C366        H373   1.086       .  S
C366        C367   1.399       .  A
C366        C371   1.396       .  A
C367        C368   1.404       .  A
C368        C369   1.406       .  A
C368        C375   1.509       .  S
C369        H374   1.082       .  S
C369        C370   1.407       .  A
C370        C371   1.404       .  A
C371        C372   1.496       .  S
C372        F376   1.383       .  S
C372        F377   1.374       .  S
C372        F378   1.383       .  S
C375        F379   1.383       .  S
C375        F380   1.383       .  S
C375        F381   1.375   1_545  S
C382        H389   1.078       .  S
C382        C383   1.409       .  A
C382        C387   1.392       .  A
C383        C384   1.418       .  A
C384        C385   1.411       .  A
C384        C391   1.516       .  S
C385        H390   1.083       .  S
C385        C386   1.414       .  A
C386        C387   1.418       .  A
C387        C388   1.525       .  S
C388        F392   1.385       .  S
C388        F393   1.384       .  S
C388        F394   1.377       .  S
C391        F395   1.383       .  S
C391        F396   1.383       .  S
C391        F397   1.384       .  S
C398        H405   1.083       .  S
C398        C399   1.408       .  A
C398        C403   1.409       .  A
C399        C400   1.405       .  A
C400        C401   1.396       .  A
C400        C407   1.509       .  S
C401        H406   1.082       .  S
C401        C402   1.408       .  A
C402        C403   1.413       .  A
C403        C404   1.512       .  S
C404        F408   1.380       .  S
C404        F409   1.377       .  S
C404        F410   1.383       .  S
C407        F411   1.381       .  S
C407        F412   1.381       .  S
C407        F413   1.383       .  S
C414        H421   1.077       .  S
C414        C415   1.401       .  A
C414        C419   1.397       .  A
C415        C416   1.414       .  A
C416        C417   1.411       .  A
C416        C423   1.519       .  S
C417        H422   1.083       .  S
C417        C418   1.406       .  A
C418        C419   1.415       .  A
C419        C420   1.523       .  S
C420        F424   1.385       .  S
C420        F425   1.382       .  S
C420        F426   1.383       .  S
C423        F427   1.381       .  S
C423        F428   1.384       .  S
C423        F429   1.384       .  S
C430        H437   1.078       .  S
C430        C431   1.412       .  A
C430        C435   1.419       .  A
C431        C432   1.408       .  A
C432        C433   1.394       .  A
C432        C439   1.520       .  S
C433        H438   1.069       .  S
C433        C434   1.410       .  A
C434        C435   1.404       .  A
C435        C436   1.508       .  S
C436        F440   1.379       .  S
C436        F441   1.381       .  S
C436        F442   1.383       .  S
C439        F443   1.382   1_545  S
C439        F444   1.379       .  S
C439        F445   1.385       .  S
C446        H453   1.083       .  S
C446        C447   1.413       .  A
C446        C451   1.420       .  A
C447        C448   1.399       .  A
C448        C449   1.406       .  A
C448        C455   1.501       .  S
C449        H454   1.080       .  S
C449        C450   1.415       .  A
C450        C451   1.432       .  A
C451        C452   1.509       .  S
C452        F456   1.385       .  S
C452        F457   1.383       .  S
C452        F458   1.379       .  S
C455        F459   1.382       .  S
C455        F460   1.381       .  S
C455        F461   1.371       .  S
C462        H469   1.077       .  S
C462        C463   1.402       .  A
C462        C467   1.419       .  A
C463        C464   1.405       .  A
C464        C465   1.397       .  A
C464        C471   1.512       .  S
C465        H470   1.084       .  S
C465        C466   1.404       .  A
C466        C467   1.429       .  A
C467        C468   1.519       .  S
C468        F472   1.382       .  S
C468        F473   1.384       .  S
C468        F474   1.383       .  S
C471        F475   1.383       .  S
C471        F476   1.384       .  S
C471        F477   1.369       .  S
C478        H485   1.084       .  S
C478        C479   1.411       .  A
C478        C483   1.396       .  A
C479        C480   1.430       .  A
C480        C481   1.401       .  A
C480        C487   1.526       .  S
C481        H486   1.085       .  S
C481        C482   1.402       .  A
C482        C483   1.405       .  A
C483        C484   1.515       .  S
C484        F488   1.385       .  S
C484        F489   1.383       .  S
C484        F490   1.384       .  S
C487        F491   1.376       .  S
C487        F492   1.384       .  S
C487        F493   1.381       .  S
C494        H501   1.087       .  S
C494        C495   1.392       .  A
C494        C499   1.389       .  A
C495        C496   1.405       .  A
C496        C497   1.412       .  A
C496        C503   1.510       .  S
C497        H502   1.083       .  S
C497        C498   1.409       .  A
C498        C499   1.433       .  A
C499        C500   1.529       .  S
C500        F504   1.380       .  S
C500        F505   1.373       .  S
C500        F506   1.365       .  S
C503        F507   1.383       .  S
C503        F508   1.383       .  S
C503        F509   1.380       .  S
C510        H517   1.084       .  S
C510        C511   1.403       .  A
C510        C515   1.398       .  A
C511        C512   1.421       .  A
C512        C513   1.408       .  A
C512        C519   1.524       .  S
C513        H518   1.073       .  S
C513        C514   1.417       .  A
C514        C515   1.435       .  A
C515        C516   1.522       .  S
C516        F520   1.382       .  S
C516        F521   1.382   1_554  S
C516        F522   1.362       .  S
C519        F523   1.383       .  S
C519        F524   1.382       .  S
C519        F525   1.385   1_455  S
C526        N544   1.357       .  A
C526        C563   1.480       .  S
C526        C696   1.510       .  S
N527        N544   1.329       .  A
N527        N549   1.319       .  A
C528        N553   1.355       .  A
C528        C566   1.481       .  S
C528        H573   1.082       .  S
H529        C570   1.081       .  S
C530        N554   1.325       .  A
C530        C534   1.449       .  S
C530        H559   1.072       .  S
Co531       N571   2.114       .  S
Co531       N547   2.085       .  S
N532        C570   1.367       .  A
N532        N539   1.325       .  A
N532       Co533   2.135       .  S
Co533       N536   2.127       .  S
Co533      Cl575   2.540       .  S
C534        N572   1.369       .  A
C534        C690   1.504       .  S
N535        N542   1.321       .  A
N535        N565   1.330       .  A
N535       Co568   2.084       .  S
N536        N554   1.321       .  A
N536        N572   1.345       .  A
N537        C566   1.352       .  A
N537        N547   1.311       .  A
H538        C563   1.082       .  S
N539        N560   1.315       .  A
N540        N558   1.317       .  A
N540        N545   1.335       .  A
C541        N545   1.364       .  A
C541        C569   1.475       .  S
C541        C710   1.487       .  S
N542        C557   1.334       .  A
C543        N571   1.348       .  A
C543        C546   1.475       .  S
C543        H577   1.078       .  S
C546        N567   1.361       .  A
C546        C702   1.488       .  S
N547        N553   1.317       .  A
N548        C574   1.339       .  A
N548        N550   1.317       .  A
N548       Co564   2.092       .  S
N549        C563   1.359       .  A
N550        N578   1.330       .  A
H551        C574   1.082       .  S
H552        C569   1.081       .  S
N554       Co568   2.094       .  S
N555        N567   1.329       .  A
N555        N571   1.312       .  A
N555       Co564   2.093       .  S
C556        N560   1.348       .  A
C556        C570   1.485       .  S
C556        C585   1.502       .  S
C557        C576   1.460       .  S
C557        H561   1.082       .  S
N558        C569   1.333       .  A
C562        N578   1.356       .  A
C562        C574   1.468       .  S
C562        C593   1.480       .  S
N565        C576   1.350       .  A
C566        C601   1.477       .  S
Co568      Cl575   2.404       .  S
C576        C579   1.466       .  S
C579        N580   1.369       .  A
C579        N584   1.353       .  A
N580        C581   1.367       .  A
C581        N582   1.359       .  A
C581        C667   1.474       .  S
N582        C583   1.345       .  A
C583        N584   1.350       .  A
C583       C1036   1.498       .  S
C585        N586   1.358       .  A
C585        N590   1.389       .  A
N586        C587   1.340       .  A
C587        N588   1.337       .  A
C587       C1020   1.458       .  S
N588        C589   1.351       .  A
C589        N590   1.389       .  A
C589        C677   1.498       .  S
C591        N592   1.371       .  A
C591        N596   1.356       .  A
C591        C687   1.477       .  S
N592        C593   1.370       .  A
C593        N594   1.357       .  A
N594        C595   1.353       .  A
C595        N596   1.352       .  A
C595       C1007   1.475       .  S
C597        N598   1.358       .  A
C597        N602   1.375       .  A
C597        C673   1.472       .  S
N598        C599   1.347       .  A
C599        N600   1.339       .  A
C599        C991   1.469       .  S
N600        C601   1.349       .  A
C601        N602   1.371       .  A
N603       C2708   1.351       .  A
N603        C607   1.350       .  A
N603        H635   1.035       .  S
N604        C612   1.347       .  A
N605       C2710   1.361       .  A
N605        C609   1.342       .  A
N605        H636   1.039       .  S
N606        C614   1.335       .  A
C607        C615   1.397       .  A
C607        C623   1.438       .  A
C608       N2703   1.356       .  A
C608        C624   1.405   1_655  A
C608        C616   1.369       .  A
C609        C617   1.389       .  A
C609        C626   1.415       .  A
C610       N2705   1.358   1_455  A
C610        C625   1.417       .  A
C610        C618   1.381   1_455  A
C611        C623   1.420       .  A
C611        C619   1.385   1_556  A
C612        C626   1.413       .  A
C612        C620   1.388       .  A
C613        C621   1.387       .  A
C613        C624   1.388       .  A
C614        C622   1.388       .  A
C614        C625   1.396       .  A
C615        H627   1.071       .  S
C615       C2716   1.373       .  A
C616        H628   1.083       .  S
C616       C2715   1.368       .  A
C617        H629   1.082       .  S
C617       C2718   1.382       .  A
C618        H630   1.083   1_655  S
C618       C2717   1.382       .  A
C619        H631   1.083   1_554  S
C620        H632   1.082       .  S
C621        H633   1.077       .  S
C622        H634   1.082       .  S
C623        C988   1.506       .  S
C624       C1004   1.507       .  S
C625       C1039   1.532       .  S
C626       C1023   1.483       .  S
C637        N655   1.357       .  A
C637        C674   1.489       .  S
C637        C760   1.519       .  S
N638        N655   1.328       .  A
N638        N660   1.318       .  A
N638      Co2775   2.112       .  S
C639        N664   1.364       .  A
C639        C677   1.475       .  S
C639        H684   1.081       .  S
H640        C681   1.082       .  S
C641        N665   1.321       .  A
C641        C645   1.449       .  S
C641        H670   1.081       .  S
Co642      N2760   2.141       .  S
Co642      N2750   2.084       .  S
Co642       N682   2.110       .  S
Co642       N658   2.124       .  S
Co642      Cl686   2.421       .  S
N643        C681   1.354       .  A
N643        N650   1.321       .  A
N643      Co2744   2.119       .  S
Co644      N2743   2.128       .  S
Co644      N2747   2.149       .  S
Co644       N664   2.112       .  S
Co644       N651   2.114       .  S
Co644      Cl686   2.531       .  S
C645        N683   1.371       .  A
C645        C748   1.499       .  S
N646        N653   1.317       .  A
N646        N676   1.333       .  A
N646      Co2779   2.119       .  S
N647        N665   1.321       .  A
N647        N683   1.345       .  A
N647      Co2744   2.140       .  S
N648        C677   1.354       .  A
N648        N658   1.318       .  A
H649        C674   1.082       .  S
N650        N671   1.314       .  A
N650      Co2742   2.083       .  S
N651        N669   1.317       .  A
N651        N656   1.337       .  A
C652        N656   1.363       .  A
C652        C680   1.482       .  S
C652        C770   1.497       .  S
N653        C668   1.337       .  A
N653      Co2775   2.078       .  S
C654        N682   1.352       .  A
C654        C657   1.473       .  S
C654        H688   1.082       .  S
C657        N678   1.349       .  A
C657        C756   1.476       .  S
N658        N664   1.324       .  A
N659        C685   1.337       .  A
N659        N661   1.317       .  A
N659       Co675   2.095       .  S
N660        C674   1.365       .  A
N660      Co2742   2.146       .  S
N661        N689   1.329       .  A
N661       Co679   2.069       .  S
H662        C685   1.082       .  S
H663        C680   1.083       .  S
N665      Co2779   2.076       .  S
N666        N678   1.321       .  A
N666        N682   1.318       .  A
N666       Co675   2.078       .  S
C667        N671   1.345       .  A
C667        C681   1.480       .  S
C668        C687   1.462       .  S
C668        H672   1.082       .  S
N669        C680   1.337       .  A
N669       Co679   2.114       .  S
C673        N689   1.351       .  A
C673        C685   1.464       .  S
Co675      N2738   2.112       .  S
Co675      N2753   2.080       .  S
Co675      Cl686   2.460       .  S
N676        C687   1.359       .  A
Co679      N2746   2.114       .  S
Co679      N2765   2.064       .  S
Co679      Cl686   2.415       .  S
C690        N691   1.370       .  A
C690        N695   1.385       .  A
N691        C692   1.350       .  A
C692        N693   1.342       .  A
C692        C975   1.511       .  S
N693        C694   1.354       .  A
C694        N695   1.381       .  A
C694        C836   1.496       .  S
C696        N697   1.390       .  A
C696        N701   1.374       .  A
N697        C698   1.380       .  A
C698        N699   1.351       .  A
C698        C846   1.513       .  S
N699        C700   1.340       .  A
C700        N701   1.361       .  A
C700        C959   1.500       .  S
C702        N703   1.378       .  A
C702        N707   1.350       .  A
N703        C704   1.379       .  A
C704        N705   1.359       .  A
C704        C842   1.498       .  S
N705        C706   1.357       .  A
C706        N707   1.348       .  A
C706        C943   1.467       .  S
C708        N709   1.382       .  A
C708        N713   1.356       .  A
C708        C856   1.487       .  S
N709        C710   1.382       .  A
C710        N711   1.348       .  A
N711        C712   1.339       .  A
C712        N713   1.339       .  A
C712        C927   1.467       .  S
N714        C718   1.352       .  A
N714        H746   1.058       .  S
N715       C1772   1.345       .  A
N715        C723   1.346       .  A
N716        C720   1.339       .  A
N716        H747   1.046       .  S
N717       C1774   1.347       .  A
N717        C725   1.342       .  A
C718        C726   1.388       .  A
C718        C734   1.415       .  A
C719        C735   1.403       .  A
C719        C727   1.384       .  A
C720        C728   1.382       .  A
C720        C737   1.404       .  A
C721        C736   1.404   1_554  A
C721        C729   1.388       .  A
C722       N1765   1.345   1_545  A
C722        C734   1.413       .  A
C722        C730   1.382       .  A
C723        C737   1.423       .  A
C723        C731   1.388       .  A
C724       N1767   1.348       .  A
C724        C732   1.384   1_554  A
C724        C735   1.413   1_565  A
C725        C733   1.392   1_554  A
C725        C736   1.415   1_554  A
C726        H738   1.082       .  S
C727        H739   1.073   1_554  S
C728        H740   1.082       .  S
C729        H741   1.079   1_554  S
C730        H742   1.082       .  S
C730       C1781   1.392   1_545  A
C731        H743   1.076       .  S
C731       C1780   1.389       .  A
C732        H744   1.082       .  S
C732       C1783   1.380       .  A
C733        H745   1.082       .  S
C733       C1782   1.380       .  A
C734        C956   1.491       .  S
C735        C940   1.485   1_554  S
C736        C924   1.483       .  S
C737        C972   1.523       .  S
C748        N749   1.382       .  A
C748        N753   1.360       .  A
N749        C750   1.381       .  A
C750        N751   1.353       .  A
C750        C806   1.495       .  S
N751        C752   1.342       .  A
C752        N753   1.343       .  A
C752        C911   1.495       .  S
C754        N755   1.371       .  A
C754        N759   1.344       .  A
C754        C821   1.468       .  S
N755        C756   1.373       .  A
C756        N757   1.360       .  A
N757        C758   1.351       .  A
C758        N759   1.335       .  A
C758        C892   1.455       .  S
C760        N761   1.391       .  A
C760        N765   1.364       .  A
N761        C762   1.390       .  A
C762        N763   1.344       .  A
C762        C826   1.495       .  S
N763        C764   1.334       .  A
C764        N765   1.354       .  A
C764        C876   1.460       .  S
C766        N767   1.360       .  A
C766        N771   1.389       .  A
C766        C814   1.513       .  S
N767        C768   1.348       .  A
C768        N769   1.333       .  A
C768        C860   1.459       .  S
N769        C770   1.347       .  A
C770        N771   1.390       .  A
N772       C1827   1.349       .  A
N772        C776   1.348       .  A
N772        H804   1.037       .  S
N773       C2880   1.348   1_455  A
N773        C781   1.345       .  A
N774       C1829   1.339       .  A
N774        C778   1.341       .  A
N774        H805   1.045       .  S
N775       C2882   1.345       .  A
N775        C783   1.348   1_655  A
C776        C784   1.384       .  A
C776        C792   1.403       .  A
C777       N1822   1.354   1_545  A
C777        C793   1.412       .  A
C777        C785   1.383   1_545  A
C778        C786   1.377       .  A
C778        C795   1.400       .  A
C779       N1824   1.339   1_545  A
C779        C794   1.393       .  A
C779        C787   1.385       .  A
C780       N2873   1.348       .  A
C780        C792   1.404       .  A
C780        C788   1.383       .  A
C781        C795   1.404       .  A
C781        C789   1.392       .  A
C782       N2875   1.347       .  A
C782        C790   1.393       .  A
C782        C793   1.419       .  A
C783        C791   1.380       .  A
C783        C794   1.400       .  A
C784        H796   1.076       .  S
C784       C1835   1.375       .  A
C785        H797   1.080       .  S
C785       C1834   1.368       .  A
C786        H798   1.076       .  S
C786       C1837   1.388       .  A
C787        H799   1.081       .  S
C787       C1836   1.388   1_545  A
C788        H800   1.083       .  S
C788       C2889   1.371       .  A
C789        H801   1.082       .  S
C789       C2888   1.370   1_455  A
C790        H802   1.079       .  S
C790       C2891   1.362       .  A
C791        H803   1.082       .  S
C791       C2890   1.364   1_455  A
C792        C863   1.489       .  S
C793        C895   1.487       .  S
C794        C879   1.490       .  S
C795        C908   1.531       .  S
C806        N824   1.351       .  A
C806        C843   1.476       .  S
N807        N824   1.319       .  A
N807        N829   1.315       .  A
N807      Co1894   2.103       .  S
C808        N833   1.376       .  A
C808        C846   1.495       .  S
C808        H853   1.079       .  S
H809        C850   1.081       .  S
C810        N834   1.335       .  A
C810        C814   1.463       .  S
C810        H839   1.082       .  S
Co811      N1879   2.106   1_545  S
Co811      N1869   2.076   1_545  S
Co811       N851   2.127       .  S
Co811       N827   2.072       .  S
Co811      Cl855   2.440       .  S
N812        C850   1.367       .  A
N812        N819   1.323       .  A
N812      Co1863   2.139       .  S
Co813      N1862   2.155   1_545  S
Co813      N1866   2.150   1_545  S
Co813       N833   2.143       .  S
Co813       N820   2.104       .  S
Co813      Cl855   2.508       .  S
C814        N852   1.370       .  A
N815        N822   1.319       .  A
N815        N845   1.338       .  A
N815       Co848   2.108       .  S
N816        N834   1.324       .  A
N816        N852   1.345       .  A
N816      Co1863   2.147       .  S
N817        C846   1.343       .  A
N817        N827   1.303       .  A
H818        C843   1.079       .  S
N819        N840   1.312       .  A
N819      Co1861   2.082       .  S
N820        N838   1.320       .  A
N820        N825   1.328       .  A
C821        N825   1.358       .  A
C821        C849   1.474       .  S
N822        C837   1.328       .  A
N822      Co1894   2.093       .  S
C823        N851   1.356       .  A
C823        C826   1.478       .  S
C823        H857   1.072       .  S
C826        N847   1.363       .  A
N827        N833   1.317       .  A
N828        C854   1.346       .  A
N828        N830   1.313       .  A
N828       Co844   2.095       .  S
N829        C843   1.361       .  A
N829      Co1861   2.097       .  S
N830        N858   1.335       .  A
N830      Co1898   2.119       .  S
H831        C854   1.081       .  S
H832        C849   1.082       .  S
N834       Co848   2.114       .  S
N835        N847   1.324       .  A
N835        N851   1.314       .  A
N835       Co844   2.103       .  S
C836        N840   1.345       .  A
C836        C850   1.486       .  S
C837        C856   1.458       .  S
C837        H841   1.076       .  S
N838        C849   1.333       .  A
N838      Co1898   2.095       .  S
C842        N858   1.364       .  A
C842        C854   1.470       .  S
Co844      N1857   2.097   1_545  S
Co844      N1872   2.096   1_545  S
Co844      Cl855   2.447       .  S
N845        C856   1.361       .  A
Co848      N1880   2.124       .  S
Co848      N1888   2.096       .  S
Co848     Cl1905   2.443       .  S
Cl855     Co1898   2.438       .  S
C859        H866   1.085       .  S
C859        C860   1.400       .  A
C859        C864   1.397       .  A
C860        C861   1.409       .  A
C861        C862   1.404       .  A
C861        C868   1.520       .  S
C862        H867   1.079       .  S
C862        C863   1.416       .  A
C863        C864   1.415       .  A
C864        C865   1.516       .  S
C865        F869   1.383       .  S
C865        F870   1.383       .  S
C865        F871   1.384       .  S
C868        F872   1.382       .  S
C868        F873   1.381       .  S
C868        F874   1.379       .  S
C875        H882   1.084       .  S
C875        C876   1.391       .  A
C875        C880   1.399       .  A
C876        C877   1.416       .  A
C877        C878   1.409       .  A
C877        C884   1.517       .  S
C878        H883   1.079       .  S
C878        C879   1.395       .  A
C879        C880   1.424       .  A
C880        C881   1.512       .  S
C881        F885   1.374       .  S
C881        F886   1.384   1_545  S
C881        F887   1.374   1_545  S
C884        F888   1.383       .  S
C884        F889   1.381       .  S
C884        F890   1.378       .  S
C891        H898   1.084       .  S
C891        C892   1.405       .  A
C891        C896   1.403       .  A
C892        C893   1.404       .  A
C893        C894   1.403       .  A
C893        C900   1.513       .  S
C894        H899   1.082       .  S
C894        C895   1.406       .  A
C895        C896   1.404       .  A
C896        C897   1.508       .  S
C897        F901   1.380       .  S
C897        F902   1.380       .  S
C897        F903   1.381       .  S
C900        F904   1.383       .  S
C900        F905   1.383       .  S
C900        F906   1.374   1_545  S
C907        H914   1.074       .  S
C907        C908   1.417       .  A
C907        C912   1.398       .  A
C908        C909   1.424       .  A
C909        C910   1.412       .  A
C909        C916   1.517       .  S
C910        H915   1.084       .  S
C910        C911   1.411       .  A
C911        C912   1.418       .  A
C912        C913   1.525       .  S
C913        F917   1.384       .  S
C913        F918   1.383       .  S
C913        F919   1.376       .  S
C916        F920   1.383       .  S
C916        F921   1.380       .  S
C916        F922   1.384       .  S
C923        H930   1.077       .  S
C923        C924   1.410       .  A
C923        C928   1.402       .  A
C924        C925   1.406       .  A
C925        C926   1.395       .  A
C925        C932   1.511       .  S
C926        H931   1.083       .  S
C926        C927   1.407       .  A
C927        C928   1.407       .  A
C928        C929   1.514       .  S
C929        F933   1.379       .  S
C929        F934   1.376       .  S
C929        F935   1.382       .  S
C932        F936   1.379       .  S
C932        F937   1.383       .  S
C932        F938   1.383       .  S
C939        H946   1.075       .  S
C939        C940   1.401       .  A
C939        C944   1.396       .  A
C940        C941   1.414       .  A
C941        C942   1.411       .  A
C941        C948   1.518   1_556  S
C942        H947   1.083       .  S
C942        C943   1.406       .  A
C943        C944   1.413       .  A
C944        C945   1.523       .  S
C945        F949   1.384       .  S
C945        F950   1.382       .  S
C945        F951   1.383       .  S
C948        F952   1.384       .  S
C948        F953   1.381       .  S
C948        F954   1.385       .  S
C955        H962   1.081       .  S
C955        C956   1.417       .  A
C955        C960   1.425       .  A
C956        C957   1.403       .  A
C957        C958   1.392       .  A
C957        C964   1.521       .  S
C958        H963   1.067       .  S
C958        C959   1.409       .  A
C959        C960   1.410       .  A
C960        C961   1.512       .  S
C961        F965   1.382       .  S
C961        F966   1.382       .  S
C961        F967   1.384       .  S
C964        F968   1.382   1_545  S
C964        F969   1.380       .  S
C964        F970   1.384       .  S
C971        H978   1.083       .  S
C971        C972   1.413       .  A
C971        C976   1.420       .  A
C972        C973   1.401       .  A
C973        C974   1.399       .  A
C973        C980   1.502       .  S
C974        H979   1.081       .  S
C974        C975   1.412       .  A
C975        C976   1.431       .  A
C976        C977   1.508       .  S
C977        F981   1.385       .  S
C977        F982   1.383       .  S
C977        F983   1.378       .  S
C980        F984   1.384       .  S
C980        F985   1.382       .  S
C980        F986   1.380       .  S
C987        H994   1.076       .  S
C987        C988   1.400       .  A
C987        C992   1.417       .  A
C988        C989   1.407       .  A
C989        C990   1.396       .  A
C989        C996   1.514       .  S
C990        H995   1.084       .  S
C990        C991   1.401       .  A
C991        C992   1.430       .  A
C992        C993   1.517       .  S
C993        F997   1.383       .  S
C993        F998   1.383       .  S
C993        F999   1.382       .  S
C996       F1000   1.385   1_556  S
C996       F1001   1.372   1_556  S
C996       F1002   1.382       .  S
C1003      H1010   1.082   1_455  S
C1003      C1004   1.415       .  A
C1003      C1008   1.410       .  A
C1004      C1005   1.419       .  A
C1005      C1006   1.401       .  A
C1005      C1012   1.507       .  S
C1006      H1011   1.084       .  S
C1006      C1007   1.396       .  A
C1007      C1008   1.411       .  A
C1008      C1009   1.517       .  S
C1009      F1013   1.384   1_455  S
C1009      F1014   1.382       .  S
C1009      F1015   1.383       .  S
C1012      F1016   1.377       .  S
C1012      F1017   1.384       .  S
C1012      F1018   1.377       .  S
C1019      H1026   1.087       .  S
C1019      C1020   1.392       .  A
C1019      C1024   1.391       .  A
C1020      C1021   1.402       .  A
C1021      C1022   1.410       .  A
C1021      C1028   1.509       .  S
C1022      H1027   1.083       .  S
C1022      C1023   1.408       .  A
C1023      C1024   1.435       .  A
C1024      C1025   1.531       .  S
C1025      F1029   1.380       .  S
C1025      F1030   1.378       .  S
C1025      F1031   1.365       .  S
C1028      F1032   1.383       .  S
C1028      F1033   1.383       .  S
C1028      F1034   1.377       .  S
C1035      H1042   1.084       .  S
C1035      C1036   1.403       .  A
C1035      C1040   1.396       .  A
C1036      C1037   1.424       .  A
C1037      C1038   1.412       .  A
C1037      C1044   1.523       .  S
C1038      H1043   1.071       .  S
C1038      C1039   1.413       .  A
C1039      C1040   1.431       .  A
C1040      C1041   1.512       .  S
C1041      F1045   1.362       .  S
C1041      F1046   1.381       .  S
C1041      F1047   1.372       .  S
C1044      F1048   1.384       .  S
C1044      F1049   1.380       .  S
C1044      F1050   1.385   1_455  S
C1051      N1069   1.354       .  A
C1051      C1088   1.479       .  S
C1051      C1221   1.505       .  S
N1052      N1069   1.327       .  A
N1052      N1074   1.319       .  A
N1052     Co1614   2.109   1_554  S
C1053      N1078   1.354       .  A
C1053      C1091   1.477       .  S
C1053      H1098   1.081       .  S
H1054      C1095   1.081       .  S
C1055      N1079   1.325       .  A
C1055      C1059   1.445       .  S
C1055      H1084   1.072       .  S
Co1056     N1599   2.130       .  S
Co1056     N1589   2.102       .  S
Co1056     N1096   2.112       .  S
Co1056     N1072   2.098       .  S
Co1056    Cl1625   2.401       .  S
N1057      C1095   1.368       .  A
N1057      N1064   1.324       .  A
N1057     Co1058   2.132   1_554  S
Co1058     N1061   2.139   1_556  S
Co1058     N1603   2.100       .  S
Co1058     N1590   2.119       .  S
Co1058    Cl1100   2.549       .  S
C1059      N1097   1.372       .  A
C1059      C1215   1.508       .  S
N1060      N1067   1.321       .  A
N1060      N1090   1.328       .  A
N1060     Co1093   2.085   1_554  S
N1061      N1079   1.320       .  A
N1061      N1097   1.347       .  A
N1062      C1091   1.356       .  A
N1062      N1072   1.314       .  A
H1063      C1088   1.082       .  S
N1064      N1085   1.316       .  A
N1064     Co1581   2.109   1_554  S
N1065      N1083   1.316       .  A
N1065      N1070   1.334       .  A
N1065     Co1583   2.117       .  S
C1066      N1070   1.364       .  A
C1066      C1094   1.473       .  S
C1066      C1235   1.484       .  S
N1067      C1082   1.332       .  A
N1067     Co1614   2.089   1_554  S
C1068      N1096   1.348       .  A
C1068      C1071   1.475       .  S
C1068      H1102   1.078       .  S
C1071      N1092   1.362       .  A
C1071      C1227   1.491       .  S
N1072      N1078   1.318       .  A
N1073      C1099   1.339       .  A
N1073      N1075   1.316       .  A
N1073     Co1089   2.087       .  S
N1074      C1088   1.359       .  A
N1074     Co1581   2.125   1_554  S
N1075      N1103   1.332       .  A
N1075     Co1618   2.102       .  S
H1076      C1099   1.082       .  S
H1077      C1094   1.081       .  S
N1078     Co1583   2.100       .  S
N1079     Co1093   2.087   1_554  S
N1080      N1092   1.330       .  A
N1080      N1096   1.314       .  A
N1080     Co1089   2.106       .  S
C1081      N1085   1.349       .  A
C1081      C1095   1.486       .  S
C1081      C1110   1.505       .  S
C1082      C1101   1.461       .  S
C1082      H1086   1.082       .  S
N1083      C1094   1.330       .  A
N1083     Co1618   2.087       .  S
C1087      N1103   1.358       .  A
C1087      C1099   1.468       .  S
C1087      C1118   1.485       .  S
Co1089     N1577   2.102       .  S
Co1089     N1592   2.102       .  S
Co1089    Cl1625   2.474       .  S
N1090      C1101   1.350       .  A
C1091      C1126   1.478       .  S
Co1093     N1600   2.097       .  S
Co1093     N1608   2.099       .  S
Co1093    Cl1100   2.405       .  S
Cl1100    Co1581   2.395       .  S
Cl1100    Co1614   2.473       .  S
C1101      C1104   1.461       .  S
C1104      N1105   1.366       .  A
C1104      N1109   1.351       .  A
N1105      C1106   1.365       .  A
C1106      N1107   1.359       .  A
C1106      C1192   1.469       .  S
N1107      C1108   1.346       .  A
C1108      N1109   1.348       .  A
C1108      C1561   1.493       .  S
C1110      N1111   1.357       .  A
C1110      N1115   1.390       .  A
N1111      C1112   1.341       .  A
C1112      N1113   1.337       .  A
C1112      C1545   1.457       .  S
N1113      C1114   1.351       .  A
C1114      N1115   1.391       .  A
C1114      C1202   1.499       .  S
C1116      N1117   1.374       .  A
C1116      N1121   1.357       .  A
C1116      C1212   1.483       .  S
N1117      C1118   1.372       .  A
C1118      N1119   1.357       .  A
N1119      C1120   1.353       .  A
C1120      N1121   1.353       .  A
C1120      C1532   1.473       .  S
C1122      N1123   1.358       .  A
C1122      N1127   1.375       .  A
C1122      C1198   1.479       .  S
N1123      C1124   1.350       .  A
C1124      N1125   1.339       .  A
C1124      C1516   1.471       .  S
N1125      C1126   1.347       .  A
C1126      N1127   1.373       .  A
N1128      C3233   1.349       .  A
N1128      C1132   1.348       .  A
N1128      H1160   1.034       .  S
N1129      C1661   1.351   1_554  A
N1129      C1137   1.346       .  A
N1130      C3235   1.362       .  A
N1130      C1134   1.343       .  A
N1130      H1161   1.038       .  S
N1131      C1663   1.333       .  A
N1131      C1139   1.339   1_556  A
C1132      C1140   1.397       .  A
C1132      C1148   1.439       .  A
C1133      N3228   1.356       .  A
C1133      C1149   1.402   1_655  A
C1133      C1141   1.367       .  A
C1134      C1142   1.389       .  A
C1134      C1151   1.416       .  A
C1135      N3230   1.362   1_455  A
C1135      C1150   1.426       .  A
C1135      C1143   1.385       .  A
C1136      N1654   1.350       .  A
C1136      C1148   1.423       .  A
C1136      C1144   1.385       .  A
C1137      C1151   1.413       .  A
C1137      C1145   1.388       .  A
C1138      N1656   1.327       .  A
C1138      C1146   1.385       .  A
C1138      C1149   1.383       .  A
C1139      C1147   1.388       .  A
C1139      C1150   1.399       .  A
C1140      H1152   1.071       .  S
C1140      C3241   1.375       .  A
C1141      H1153   1.083       .  S
C1141      C3240   1.361       .  A
C1142      H1154   1.082       .  S
C1142      C3243   1.382       .  A
C1143      H1155   1.083       .  S
C1143      C3242   1.383   1_455  A
C1144      H1156   1.083       .  S
C1144      C1670   1.383       .  A
C1145      H1157   1.083       .  S
C1145      C1669   1.383       .  A
C1146      H1158   1.080       .  S
C1146      C1672   1.374       .  A
C1147      H1159   1.082       .  S
C1147      C1671   1.374   1_554  A
C1148      C1513   1.507       .  S
C1149      C1529   1.500       .  S
C1150      C1564   1.528       .  S
C1151      C1548   1.484       .  S
C1162      N1180   1.357       .  A
C1162      C1199   1.485       .  S
C1162      C1285   1.509       .  S
N1163      N1180   1.325       .  A
N1163      N1185   1.317       .  A
N1163     Co3300   2.106       .  S
C1164      N1189   1.363       .  A
C1164      C1202   1.474       .  S
C1164      H1209   1.081       .  S
H1165      C1206   1.082       .  S
C1166      N1190   1.319       .  A
C1166      C1170   1.448       .  S
C1166      H1195   1.081       .  S
Co1167     N3285   2.140       .  S
Co1167     N3275   2.081       .  S
Co1167     N1207   2.117       .  S
Co1167     N1183   2.131       .  S
Co1167    Cl1211   2.426       .  S
N1168      C1206   1.352       .  A
N1168      N1175   1.321       .  A
N1168     Co3269   2.112       .  S
Co1169     N3268   2.120       .  S
Co1169     N3272   2.152       .  S
Co1169     N1189   2.113       .  S
Co1169     N1176   2.110       .  S
Co1169    Cl1211   2.530       .  S
C1170      N1208   1.373       .  A
C1170      C1273   1.503       .  S
N1171      N1178   1.317       .  A
N1171      N1201   1.335       .  A
N1171     Co3304   2.131       .  S
N1172      N1190   1.321       .  A
N1172      N1208   1.347       .  A
N1172     Co3269   2.145       .  S
N1173      C1202   1.356       .  A
N1173      N1183   1.319       .  A
H1174      C1199   1.082       .  S
N1175      N1196   1.313       .  A
N1175     Co3267   2.079       .  S
N1176      N1194   1.316       .  A
N1176      N1181   1.336       .  A
C1177      N1181   1.363       .  A
C1177      C1205   1.481       .  S
C1177      C1295   1.495       .  S
N1178      C1193   1.337       .  A
N1178     Co3300   2.077       .  S
C1179      N1207   1.353       .  A
C1179      C1182   1.475       .  S
C1179      H1213   1.082       .  S
C1182      N1203   1.346       .  A
C1182      C1281   1.477       .  S
N1183      N1189   1.325       .  A
N1184      C1210   1.340       .  A
N1184      N1186   1.317       .  A
N1184     Co1200   2.103       .  S
N1185      C1199   1.363       .  A
N1185     Co3267   2.132       .  S
N1186      N1214   1.329       .  A
N1186     Co1204   2.071       .  S
H1187      C1210   1.082       .  S
H1188      C1205   1.083       .  S
N1190     Co3304   2.071       .  S
N1191      N1203   1.320       .  A
N1191      N1207   1.319       .  A
N1191     Co1200   2.072       .  S
C1192      N1196   1.344       .  A
C1192      C1206   1.478       .  S
C1193      C1212   1.461       .  S
C1193      H1197   1.082       .  S
N1194      C1205   1.335       .  A
N1194     Co1204   2.110       .  S
C1198      N1214   1.351       .  A
C1198      C1210   1.468       .  S
Co1200     N3263   2.105       .  S
Co1200     N3278   2.077       .  S
Co1200    Cl1211   2.456       .  S
N1201      C1212   1.362       .  A
Co1204     N3271   2.114       .  S
Co1204     N3290   2.059       .  S
Co1204    Cl1211   2.413       .  S
C1215      N1216   1.374       .  A
C1215      N1220   1.384       .  A
N1216      C1217   1.355       .  A
C1217      N1218   1.343       .  A
C1217      C1500   1.514       .  S
N1218      C1219   1.355       .  A
C1219      N1220   1.380       .  A
C1219      C1361   1.494       .  S
C1221      N1222   1.389       .  A
C1221      N1226   1.373       .  A
N1222      C1223   1.379       .  A
C1223      N1224   1.352       .  A
C1223      C1371   1.511       .  S
N1224      C1225   1.338       .  A
C1225      N1226   1.358       .  A
C1225      C1484   1.499       .  S
C1227      N1228   1.380       .  A
C1227      N1232   1.350       .  A
N1228      C1229   1.381       .  A
C1229      N1230   1.359       .  A
C1229      C1367   1.501       .  S
N1230      C1231   1.357       .  A
C1231      N1232   1.348       .  A
C1231      C1468   1.469       .  S
C1233      N1234   1.379       .  A
C1233      N1238   1.357       .  A
C1233      C1381   1.486       .  S
N1234      C1235   1.380       .  A
C1235      N1236   1.350       .  A
N1236      C1237   1.338       .  A
C1237      N1238   1.340       .  A
C1237      C1452   1.471       .  S
N1239      C1769   1.338       .  A
N1239      C1243   1.354       .  A
N1239      H1271   1.038       .  S
N1240      C1248   1.343       .  A
N1241      C1771   1.343       .  A
N1241      C1245   1.343       .  A
N1241      H1272   1.045       .  S
N1242      C1250   1.342       .  A
C1243      C1251   1.387       .  A
C1243      C1259   1.414       .  A
C1244      N1764   1.340       .  A
C1244      C1260   1.402       .  A
C1244      C1252   1.387       .  A
C1245      C1253   1.380       .  A
C1245      C1262   1.404       .  A
C1246      N1766   1.342       .  A
C1246      C1261   1.404       .  A
C1246      C1254   1.388       .  A
C1247      C1259   1.412       .  A
C1247      C1255   1.382       .  A
C1248      C1262   1.421       .  A
C1248      C1256   1.387       .  A
C1249      C1257   1.383       .  A
C1249      C1260   1.406       .  A
C1250      C1258   1.391       .  A
C1250      C1261   1.414       .  A
C1251      H1263   1.081       .  S
C1251      C1777   1.373       .  A
C1252      H1264   1.081       .  S
C1252      C1776   1.378       .  A
C1253      H1265   1.082       .  S
C1253      C1779   1.387       .  A
C1254      H1266   1.078       .  S
C1254      C1778   1.389       .  A
C1255      H1267   1.082       .  S
C1256      H1268   1.076       .  S
C1257      H1269   1.082       .  S
C1258      H1270   1.082       .  S
C1259      C1481   1.489       .  S
C1260      C1465   1.476       .  S
C1261      C1449   1.485       .  S
C1262      C1497   1.519       .  S
C1273      N1274   1.384       .  A
C1273      N1278   1.360       .  A
N1274      C1275   1.384       .  A
C1275      N1276   1.353       .  A
C1275      C1331   1.501       .  S
N1276      C1277   1.343       .  A
C1277      N1278   1.341       .  A
C1277      C1436   1.495       .  S
C1279      N1280   1.369       .  A
C1279      N1284   1.347       .  A
C1279      C1346   1.467       .  S
N1280      C1281   1.370       .  A
C1281      N1282   1.364       .  A
N1282      C1283   1.354       .  A
C1283      N1284   1.336       .  A
C1283      C1417   1.462       .  S
C1285      N1286   1.390       .  A
C1285      N1290   1.360       .  A
N1286      C1287   1.389       .  A
C1287      N1288   1.347       .  A
C1287      C1351   1.496       .  S
N1288      C1289   1.335       .  A
C1289      N1290   1.348       .  A
C1289      C1401   1.456       .  S
C1291      N1292   1.362       .  A
C1291      N1296   1.388       .  A
C1291      C1339   1.514       .  S
N1292      C1293   1.348       .  A
C1293      N1294   1.330       .  A
C1293      C1385   1.461       .  S
N1294      C1295   1.348       .  A
C1295      N1296   1.389       .  A
N1297      C1301   1.351       .  A
N1297      H1329   1.032       .  S
N1298      C3405   1.347   1_455  A
N1298      C1306   1.345       .  A
N1299      C1303   1.346       .  A
N1299      H1330   1.045       .  S
N1300      C3407   1.346       .  A
N1300      C1308   1.351   1_655  A
C1301      C1309   1.385       .  A
C1301      C1317   1.406       .  A
C1302      C1318   1.411       .  A
C1302      C1310   1.384       .  A
C1303      C1311   1.375       .  A
C1303      C1320   1.405       .  A
C1304      C1319   1.393       .  A
C1304      C1312   1.384       .  A
C1305      N3398   1.350       .  A
C1305      C1317   1.403       .  A
C1305      C1313   1.380       .  A
C1306      C1320   1.402       .  A
C1306      C1314   1.390       .  A
C1307      N3400   1.346       .  A
C1307      C1315   1.392       .  A
C1307      C1318   1.419       .  A
C1308      C1316   1.380       .  A
C1308      C1319   1.400       .  A
C1309      H1321   1.079       .  S
C1310      H1322   1.078       .  S
C1311      H1323   1.071       .  S
C1312      H1324   1.077       .  S
C1313      H1325   1.082       .  S
C1313      C3414   1.371       .  A
C1314      H1326   1.082       .  S
C1314      C3413   1.371   1_455  A
C1315      H1327   1.079       .  S
C1315      C3416   1.366       .  A
C1316      H1328   1.083       .  S
C1316      C3415   1.366   1_455  A
C1317      C1388   1.482       .  S
C1318      C1420   1.487       .  S
C1319      C1404   1.493       .  S
C1320      C1433   1.528       .  S
C1331      N1349   1.353       .  A
C1331      C1368   1.479       .  S
N1332      N1349   1.320       .  A
N1332      N1354   1.316       .  A
C1333      N1358   1.378       .  A
C1333      C1371   1.498       .  S
C1333      H1378   1.080       .  S
H1334      C1375   1.081       .  S
C1335      N1359   1.333       .  A
C1335      C1339   1.459       .  S
C1335      H1364   1.082       .  S
Co1336     N1376   2.130       .  S
Co1336     N1352   2.057       .  S
Co1336    Cl1380   2.442       .  S
N1337      C1375   1.366       .  A
N1337      N1344   1.323       .  A
Co1338     N1358   2.154       .  S
Co1338     N1345   2.093       .  S
Co1338    Cl1380   2.510       .  S
C1339      N1377   1.371       .  A
N1340      N1347   1.317       .  A
N1340      N1370   1.339       .  A
N1340     Co1373   2.111   1_565  S
N1341      N1359   1.325       .  A
N1341      N1377   1.346       .  A
N1342      C1371   1.339       .  A
N1342      N1352   1.300       .  A
H1343      C1368   1.079       .  S
N1344      N1365   1.313       .  A
N1345      N1363   1.320       .  A
N1345      N1350   1.328       .  A
C1346      N1350   1.356       .  A
C1346      C1374   1.471       .  S
N1347      C1362   1.326       .  A
C1348      N1376   1.358       .  A
C1348      C1351   1.481       .  S
C1348      H1382   1.073       .  S
C1351      N1372   1.359       .  A
N1352      N1358   1.317       .  A
N1353      C1379   1.346       .  A
N1353      N1355   1.314       .  A
N1353     Co1369   2.100       .  S
N1354      C1368   1.363       .  A
N1355      N1383   1.336       .  A
H1356      C1379   1.081       .  S
H1357      C1374   1.082       .  S
N1359     Co1373   2.108   1_565  S
N1360      N1372   1.323       .  A
N1360      N1376   1.313       .  A
N1360     Co1369   2.094       .  S
C1361      N1365   1.345       .  A
C1361      C1375   1.485       .  S
C1362      C1381   1.454       .  S
C1362      H1366   1.074       .  S
N1363      C1374   1.331       .  A
C1367      N1383   1.365       .  A
C1367      C1379   1.472       .  S
Co1369    Cl1380   2.447       .  S
N1370      C1381   1.362       .  A
C1384      H1391   1.085       .  S
C1384      C1385   1.401       .  A
C1384      C1389   1.400       .  A
C1385      C1386   1.408       .  A
C1386      C1387   1.401       .  A
C1386      C1393   1.519       .  S
C1387      H1392   1.081       .  S
C1387      C1388   1.412       .  A
C1388      C1389   1.416       .  A
C1389      C1390   1.518       .  S
C1390      F1394   1.384       .  S
C1390      F1395   1.382       .  S
C1390      F1396   1.383       .  S
C1393      F1397   1.379       .  S
C1393      F1398   1.382       .  S
C1393      F1399   1.383       .  S
C1400      H1407   1.086       .  S
C1400      C1401   1.383       .  A
C1400      C1405   1.397       .  A
C1401      C1402   1.410       .  A
C1402      C1403   1.409       .  A
C1402      C1409   1.518       .  S
C1403      H1408   1.081       .  S
C1403      C1404   1.402       .  A
C1404      C1405   1.428       .  A
C1405      C1406   1.506       .  S
C1406      F1410   1.377       .  S
C1406      F1411   1.382       .  S
C1406      F1412   1.376       .  S
C1409      F1413   1.384       .  S
C1409      F1414   1.382       .  S
C1409      F1415   1.379       .  S
C1416      H1423   1.084       .  S
C1416      C1417   1.406       .  A
C1416      C1421   1.406       .  A
C1417      C1418   1.406       .  A
C1418      C1419   1.404       .  A
C1418      C1425   1.511       .  S
C1419      H1424   1.083       .  S
C1419      C1420   1.404       .  A
C1420      C1421   1.405       .  A
C1421      C1422   1.506       .  S
C1422      F1426   1.381       .  S
C1422      F1427   1.381       .  S
C1422      F1428   1.379       .  S
C1425      F1429   1.383       .  S
C1425      F1430   1.382       .  S
C1425      F1431   1.375       .  S
C1432      H1439   1.072       .  S
C1432      C1433   1.412       .  A
C1432      C1437   1.401       .  A
C1433      C1434   1.421       .  A
C1434      C1435   1.412       .  A
C1434      C1441   1.518       .  S
C1435      H1440   1.084       .  S
C1435      C1436   1.412       .  A
C1436      C1437   1.418       .  A
C1437      C1438   1.523       .  S
C1438      F1442   1.384       .  S
C1438      F1443   1.382       .  S
C1438      F1444   1.375       .  S
C1441      F1445   1.382       .  S
C1441      F1446   1.383       .  S
C1441      F1447   1.384       .  S
C1448      H1455   1.076       .  S
C1448      C1449   1.409       .  A
C1448      C1453   1.403       .  A
C1449      C1450   1.406       .  A
C1450      C1451   1.397       .  A
C1450      C1457   1.512       .  S
C1451      H1456   1.083       .  S
C1451      C1452   1.409       .  A
C1452      C1453   1.410       .  A
C1453      C1454   1.517       .  S
C1454      F1458   1.380   1_565  S
C1454      F1459   1.375       .  S
C1454      F1460   1.381       .  S
C1457      F1461   1.381       .  S
C1457      F1462   1.383       .  S
C1457      F1463   1.383       .  S
C1464      H1471   1.080       .  S
C1464      C1465   1.399       .  A
C1464      C1469   1.400       .  A
C1465      C1466   1.417       .  A
C1466      C1467   1.407       .  A
C1466      C1473   1.518       .  S
C1467      H1472   1.085       .  S
C1467      C1468   1.403       .  A
C1468      C1469   1.415       .  A
C1469      C1470   1.518       .  S
C1470      F1474   1.381       .  S
C1470      F1475   1.382       .  S
C1470      F1476   1.383       .  S
C1473      F1477   1.383       .  S
C1473      F1478   1.383       .  S
C1473      F1479   1.382       .  S
C1480      H1487   1.080       .  S
C1480      C1481   1.414       .  A
C1480      C1485   1.421       .  A
C1481      C1482   1.407       .  A
C1482      C1483   1.396       .  A
C1482      C1489   1.524       .  S
C1483      H1488   1.069       .  S
C1483      C1484   1.410       .  A
C1484      C1485   1.409       .  A
C1485      C1486   1.511       .  S
C1486      F1490   1.382       .  S
C1486      F1491   1.381       .  S
C1486      F1492   1.384       .  S
C1489      F1493   1.382       .  S
C1489      F1494   1.380       .  S
C1489      F1495   1.385       .  S
C1496      H1503   1.083       .  S
C1496      C1497   1.411       .  A
C1496      C1501   1.419       .  A
C1497      C1498   1.401       .  A
C1498      C1499   1.404       .  A
C1498      C1505   1.505       .  S
C1499      H1504   1.081       .  S
C1499      C1500   1.415       .  A
C1500      C1501   1.430       .  A
C1501      C1502   1.507       .  S
C1502      F1506   1.384       .  S
C1502      F1507   1.383       .  S
C1502      F1508   1.377       .  S
C1505      F1509   1.384       .  S
C1505      F1510   1.379       .  S
C1505      F1511   1.375       .  S
C1512      H1519   1.075       .  S
C1512      C1513   1.401       .  A
C1512      C1517   1.416       .  A
C1513      C1514   1.405       .  A
C1514      C1515   1.397       .  A
C1514      C1521   1.512       .  S
C1515      H1520   1.084       .  S
C1515      C1516   1.404       .  A
C1516      C1517   1.430       .  A
C1517      C1518   1.518       .  S
C1518      F1522   1.382       .  S
C1518      F1523   1.384       .  S
C1518      F1524   1.382       .  S
C1521      F1525   1.373       .  S
C1521      F1526   1.383       .  S
C1521      F1527   1.384       .  S
C1528      H1535   1.083   1_455  S
C1528      C1529   1.414       .  A
C1528      C1533   1.411       .  A
C1529      C1530   1.416       .  A
C1530      C1531   1.399       .  A
C1530      C1537   1.505       .  S
C1531      H1536   1.086       .  S
C1531      C1532   1.396       .  A
C1532      C1533   1.410       .  A
C1533      C1534   1.515       .  S
C1534      F1538   1.384   1_455  S
C1534      F1539   1.382       .  S
C1534      F1540   1.383       .  S
C1537      F1541   1.374       .  S
C1537      F1542   1.385       .  S
C1537      F1543   1.377       .  S
C1544      H1551   1.086       .  S
C1544      C1545   1.392       .  A
C1544      C1549   1.390       .  A
C1545      C1546   1.404       .  A
C1546      C1547   1.410       .  A
C1546      C1553   1.509       .  S
C1547      H1552   1.083       .  S
C1547      C1548   1.407       .  A
C1548      C1549   1.433       .  A
C1549      C1550   1.529       .  S
C1550      F1554   1.384       .  S
C1550      F1555   1.375       .  S
C1550      F1556   1.365       .  S
C1553      F1557   1.383       .  S
C1553      F1558   1.383       .  S
C1553      F1559   1.378       .  S
C1560      H1567   1.083       .  S
C1560      C1561   1.404       .  A
C1560      C1565   1.397       .  A
C1561      C1562   1.420       .  A
C1562      C1563   1.408       .  A
C1562      C1569   1.524       .  S
C1563      H1568   1.072       .  S
C1563      C1564   1.417       .  A
C1564      C1565   1.432       .  A
C1565      C1566   1.518       .  S
C1566      F1570   1.383       .  S
C1566      F1571   1.382   1_554  S
C1566      F1572   1.363       .  S
C1569      F1573   1.384       .  S
C1569      F1574   1.381       .  S
C1569      F1575   1.385   1_455  S
C1576      N1594   1.352       .  A
C1576      C1613   1.480       .  S
C1576      C1746   1.501       .  S
N1577      N1594   1.325       .  A
N1577      N1599   1.320       .  A
C1578      N1603   1.355       .  A
C1578      C1616   1.480       .  S
C1578      H1623   1.081       .  S
H1579      C1620   1.081       .  S
C1580      N1604   1.326       .  A
C1580      C1584   1.448       .  S
C1580      H1609   1.072       .  S
Co1581     N1621   2.108       .  S
Co1581     N1597   2.091       .  S
N1582      C1620   1.366       .  A
N1582      N1589   1.323       .  A
N1582     Co1583   2.124       .  S
Co1583     N1586   2.132       .  S
Co1583    Cl1625   2.548       .  S
C1584      N1622   1.370       .  A
C1584      C1740   1.507       .  S
N1585      N1592   1.321       .  A
N1585      N1615   1.328       .  A
N1585     Co1618   2.080       .  S
N1586      N1604   1.321       .  A
N1586      N1622   1.346       .  A
N1587      C1616   1.356       .  A
N1587      N1597   1.313       .  A
H1588      C1613   1.082       .  S
N1589      N1610   1.314       .  A
N1590      N1608   1.318       .  A
N1590      N1595   1.334       .  A
C1591      N1595   1.363       .  A
C1591      C1619   1.478       .  S
C1591      C1760   1.485       .  S
N1592      C1607   1.337       .  A
C1593      N1621   1.347       .  A
C1593      C1596   1.473       .  S
C1593      H1627   1.079       .  S
C1596      N1617   1.363       .  A
C1596      C1752   1.488       .  S
N1597      N1603   1.315       .  A
N1598      C1624   1.340       .  A
N1598      N1600   1.318       .  A
N1598     Co1614   2.089       .  S
N1599      C1613   1.360       .  A
N1600      N1628   1.332       .  A
H1601      C1624   1.082       .  S
H1602      C1619   1.081       .  S
N1604     Co1618   2.094       .  S
N1605      N1617   1.330       .  A
N1605      N1621   1.314       .  A
N1605     Co1614   2.106       .  S
C1606      N1610   1.347       .  A
C1606      C1620   1.483       .  S
C1606      C1635   1.496       .  S
C1607      C1626   1.465       .  S
C1607      H1611   1.082       .  S
N1608      C1619   1.334       .  A
C1612      N1628   1.356       .  A
C1612      C1624   1.465       .  S
C1612      C1643   1.484       .  S
N1615      C1626   1.348       .  A
C1616      C1651   1.480       .  S
Co1618    Cl1625   2.403       .  S
C1626      C1629   1.467       .  S
C1629      N1630   1.368       .  A
C1629      N1634   1.351       .  A
N1630      C1631   1.367       .  A
C1631      N1632   1.358       .  A
C1631      C1717   1.470       .  S
N1632      C1633   1.343       .  A
C1633      N1634   1.351       .  A
C1633      C2086   1.492       .  S
C1635      N1636   1.357       .  A
C1635      N1640   1.387       .  A
N1636      C1637   1.339       .  A
C1637      N1638   1.336       .  A
C1637      C2070   1.458       .  S
N1638      C1639   1.353       .  A
C1639      N1640   1.387       .  A
C1639      C1727   1.492       .  S
C1641      N1642   1.369       .  A
C1641      N1646   1.354       .  A
C1641      C1737   1.474       .  S
N1642      C1643   1.368       .  A
C1643      N1644   1.359       .  A
N1644      C1645   1.358       .  A
C1645      N1646   1.351       .  A
C1645      C2057   1.471       .  S
C1647      N1648   1.360       .  A
C1647      N1652   1.378       .  A
C1647      C1723   1.483       .  S
N1648      C1649   1.351       .  A
C1649      N1650   1.336       .  A
C1649      C2041   1.473       .  S
N1650      C1651   1.346       .  A
C1651      N1652   1.374       .  A
N1653      C3758   1.352       .  A
N1653      C1657   1.352       .  A
N1653      H1685   1.031       .  S
N1654      C1662   1.346       .  A
N1655      C3760   1.362       .  A
N1655      C1659   1.344       .  A
N1655      H1686   1.039       .  S
N1656      C1664   1.337       .  A
C1657      C1665   1.397       .  A
C1657      C1673   1.443       .  A
C1658      N3753   1.349       .  A
C1658      C1674   1.399   1_655  A
C1658      C1666   1.371       .  A
C1659      C1667   1.388       .  A
C1659      C1676   1.417       .  A
C1660      N3755   1.360   1_455  A
C1660      C1675   1.426       .  A
C1660      C1668   1.386   1_455  A
C1661      C1673   1.424       .  A
C1661      C1669   1.385   1_556  A
C1662      C1676   1.414       .  A
C1662      C1670   1.388       .  A
C1663      C1671   1.386       .  A
C1663      C1674   1.391       .  A
C1664      C1672   1.386       .  A
C1664      C1675   1.396       .  A
C1665      H1677   1.060       .  S
C1665      C3766   1.368       .  A
C1666      H1678   1.083       .  S
C1666      C3765   1.371       .  A
C1667      H1679   1.082       .  S
C1667      C3768   1.382       .  A
C1668      H1680   1.083   1_655  S
C1668      C3767   1.383       .  A
C1669      H1681   1.083   1_554  S
C1670      H1682   1.082       .  S
C1671      H1683   1.080       .  S
C1672      H1684   1.082       .  S
C1673      C2038   1.511       .  S
C1674      C2054   1.489       .  S
C1675      C2089   1.527       .  S
C1676      C2073   1.488       .  S
C1687      N1705   1.356       .  A
C1687      C1724   1.485       .  S
C1687      C1810   1.509       .  S
N1688      N1705   1.325       .  A
N1688      N1710   1.317       .  A
N1688     Co3825   2.101       .  S
C1689      N1714   1.363       .  A
C1689      C1727   1.476       .  S
C1689      H1734   1.081       .  S
H1690      C1731   1.082       .  S
C1691      N1715   1.321       .  A
C1691      C1695   1.449       .  S
C1691      H1720   1.081       .  S
Co1692     N3810   2.126       .  S
Co1692     N3800   2.078       .  S
Co1692     N1732   2.116       .  S
Co1692     N1708   2.109       .  S
Co1692    Cl1736   2.417       .  S
N1693      C1731   1.351       .  A
N1693      N1700   1.319       .  A
N1693     Co3794   2.109       .  S
Co1694     N3793   2.122       .  S
Co1694     N3797   2.153       .  S
Co1694     N1714   2.111       .  S
Co1694     N1701   2.105       .  S
Co1694    Cl1736   2.532       .  S
C1695      N1733   1.371       .  A
C1695      C1798   1.499       .  S
N1696      N1703   1.317       .  A
N1696      N1726   1.331       .  A
N1696     Co3829   2.110       .  S
N1697      N1715   1.320       .  A
N1697      N1733   1.345       .  A
N1697     Co3794   2.139       .  S
N1698      C1727   1.350       .  A
N1698      N1708   1.315       .  A
H1699      C1724   1.082       .  S
N1700      N1721   1.314       .  A
N1700     Co3792   2.082       .  S
N1701      N1719   1.317       .  A
N1701      N1706   1.336       .  A
C1702      N1706   1.361       .  A
C1702      C1730   1.485       .  S
C1702      C1820   1.495       .  S
N1703      C1718   1.339       .  A
N1703     Co3825   2.084       .  S
C1704      N1732   1.352       .  A
C1704      C1707   1.473       .  S
C1704      H1738   1.082       .  S
C1707      N1728   1.349       .  A
C1707      C1806   1.478       .  S
N1708      N1714   1.323       .  A
N1709      C1735   1.341       .  A
N1709      N1711   1.317       .  A
N1709     Co1725   2.105       .  S
N1710      C1724   1.363       .  A
N1710     Co3792   2.137       .  S
N1711      N1739   1.331       .  A
N1711     Co1729   2.077       .  S
H1712      C1735   1.082       .  S
H1713      C1730   1.083       .  S
N1715     Co3829   2.075       .  S
N1716      N1728   1.322       .  A
N1716      N1732   1.319       .  A
N1716     Co1725   2.078       .  S
C1717      N1721   1.347       .  A
C1717      C1731   1.478       .  S
C1718      C1737   1.465       .  S
C1718      H1722   1.082       .  S
N1719      C1730   1.335       .  A
N1719     Co1729   2.118       .  S
C1723      N1739   1.352       .  A
C1723      C1735   1.468       .  S
Co1725     N3788   2.105       .  S
Co1725     N3803   2.075       .  S
Co1725    Cl1736   2.459       .  S
N1726      C1737   1.355       .  A
Co1729     N3796   2.123       .  S
Co1729     N3815   2.067       .  S
Co1729    Cl1736   2.412       .  S
C1740      N1741   1.371       .  A
C1740      N1745   1.383       .  A
N1741      C1742   1.353       .  A
C1742      N1743   1.346       .  A
C1742      C2025   1.519       .  S
N1743      C1744   1.359       .  A
C1744      N1745   1.380       .  A
C1744      C1886   1.499       .  S
C1746      N1747   1.385       .  A
C1746      N1751   1.372       .  A
N1747      C1748   1.377       .  A
C1748      N1749   1.353       .  A
C1748      C1896   1.504       .  S
N1749      C1750   1.340       .  A
C1750      N1751   1.358       .  A
C1750      C2009   1.495       .  S
C1752      N1753   1.379       .  A
C1752      N1757   1.349       .  A
N1753      C1754   1.380       .  A
C1754      N1755   1.360       .  A
C1754      C1892   1.500       .  S
N1755      C1756   1.358       .  A
C1756      N1757   1.348       .  A
C1756      C1993   1.467       .  S
C1758      N1759   1.382       .  A
C1758      N1763   1.356       .  A
C1758      C1906   1.486       .  S
N1759      C1760   1.381       .  A
C1760      N1761   1.347       .  A
N1761      C1762   1.337       .  A
C1762      N1763   1.339       .  A
C1762      C1977   1.465       .  S
N1764      C1768   1.354       .  A
N1764      H1796   1.035       .  S
N1765      C1773   1.346       .  A
N1766      C1770   1.341       .  A
N1766      H1797   1.045       .  S
N1767      C1775   1.342       .  A
C1768      C1776   1.388       .  A
C1768      C1784   1.419       .  A
C1769      C1785   1.401       .  A
C1769      C1777   1.383       .  A
C1770      C1778   1.380       .  A
C1770      C1787   1.402       .  A
C1771      C1786   1.405   1_554  A
C1771      C1779   1.389       .  A
C1772      C1784   1.413       .  A
C1772      C1780   1.384       .  A
C1773      C1787   1.425       .  A
C1773      C1781   1.389       .  A
C1774      C1782   1.384   1_554  A
C1774      C1785   1.411       .  A
C1775      C1783   1.392   1_554  A
C1775      C1786   1.415   1_554  A
C1776      H1788   1.081       .  S
C1777      H1789   1.075   1_554  S
C1778      H1790   1.082       .  S
C1779      H1791   1.079   1_554  S
C1780      H1792   1.082       .  S
C1781      H1793   1.075       .  S
C1782      H1794   1.082       .  S
C1783      H1795   1.082       .  S
C1784      C2006   1.490       .  S
C1785      C1990   1.480   1_554  S
C1786      C1974   1.485       .  S
C1787      C2022   1.528       .  S
C1798      N1799   1.382       .  A
C1798      N1803   1.358       .  A
N1799      C1800   1.381       .  A
C1800      N1801   1.355       .  A
C1800      C1856   1.498       .  S
N1801      C1802   1.344       .  A
C1802      N1803   1.340       .  A
C1802      C1961   1.495       .  S
C1804      N1805   1.369       .  A
C1804      N1809   1.345       .  A
C1804      C1871   1.464       .  S
N1805      C1806   1.370       .  A
C1806      N1807   1.361       .  A
N1807      C1808   1.354       .  A
C1808      N1809   1.335       .  A
C1808      C1942   1.457       .  S
C1810      N1811   1.390       .  A
C1810      N1815   1.360       .  A
N1811      C1812   1.389       .  A
C1812      N1813   1.345       .  A
C1812      C1876   1.493       .  S
N1813      C1814   1.334       .  A
C1814      N1815   1.348       .  A
C1814      C1926   1.455       .  S
C1816      N1817   1.363       .  A
C1816      N1821   1.390       .  A
C1816      C1864   1.511       .  S
N1817      C1818   1.347       .  A
C1818      N1819   1.326       .  A
C1818      C1910   1.457       .  S
N1819      C1820   1.344       .  A
C1820      N1821   1.389       .  A
N1822      C1826   1.351       .  A
N1822      H1854   1.038       .  S
N1823      C3930   1.351   1_455  A
N1823      C1831   1.346       .  A
N1824      C1828   1.341       .  A
N1824      H1855   1.042       .  S
N1825      C3932   1.348       .  A
N1825      C1833   1.353   1_655  A
C1826      C1834   1.389       .  A
C1826      C1842   1.412       .  A
C1827      C1843   1.407       .  A
C1827      C1835   1.384       .  A
C1828      C1836   1.375       .  A
C1828      C1845   1.400       .  A
C1829      C1844   1.389       .  A
C1829      C1837   1.383       .  A
C1830      N3923   1.350       .  A
C1830      C1842   1.401       .  A
C1830      C1838   1.380       .  A
C1831      C1845   1.409       .  A
C1831      C1839   1.393       .  A
C1832      N3925   1.346       .  A
C1832      C1840   1.392       .  A
C1832      C1843   1.416       .  A
C1833      C1841   1.379       .  A
C1833      C1844   1.403       .  A
C1834      H1846   1.079       .  S
C1835      H1847   1.082       .  S
C1836      H1848   1.074       .  S
C1837      H1849   1.082       .  S
C1838      H1850   1.082       .  S
C1838      C3939   1.371       .  A
C1839      H1851   1.082       .  S
C1839      C3938   1.373   1_455  A
C1840      H1852   1.080       .  S
C1840      C3941   1.366       .  A
C1841      H1853   1.083       .  S
C1841      C3940   1.364   1_455  A
C1842      C1913   1.481       .  S
C1843      C1945   1.483       .  S
C1844      C1929   1.494       .  S
C1845      C1958   1.535       .  S
C1856      N1874   1.350       .  A
C1856      C1893   1.479       .  S
N1857      N1874   1.319       .  A
N1857      N1879   1.314       .  A
C1858      N1883   1.373       .  A
C1858      C1896   1.491       .  S
C1858      H1903   1.078       .  S
H1859      C1900   1.081       .  S
C1860      N1884   1.332       .  A
C1860      C1864   1.458       .  S
C1860      H1889   1.082       .  S
Co1861     N1901   2.125       .  S
Co1861     N1877   2.059       .  S
Co1861    Cl1905   2.441       .  S
N1862      C1900   1.369       .  A
N1862      N1869   1.324       .  A
Co1863     N1883   2.138       .  S
Co1863     N1870   2.089       .  S
Co1863    Cl1905   2.514       .  S
C1864      N1902   1.370       .  A
N1865      N1872   1.318       .  A
N1865      N1895   1.338       .  A
N1865     Co1898   2.107   1_565  S
N1866      N1884   1.324       .  A
N1866      N1902   1.346       .  A
N1867      C1896   1.341       .  A
N1867      N1877   1.303       .  A
H1868      C1893   1.078       .  S
N1869      N1890   1.312       .  A
N1870      N1888   1.319       .  A
N1870      N1875   1.326       .  A
C1871      N1875   1.355       .  A
C1871      C1899   1.475       .  S
N1872      C1887   1.330       .  A
C1873      N1901   1.357       .  A
C1873      C1876   1.481       .  S
C1873      H1907   1.078       .  S
C1876      N1897   1.361       .  A
N1877      N1883   1.317       .  A
N1878      C1904   1.346       .  A
N1878      N1880   1.314       .  A
N1878     Co1894   2.100       .  S
N1879      C1893   1.362       .  A
N1880      N1908   1.335       .  A
H1881      C1904   1.081       .  S
H1882      C1899   1.082       .  S
N1884     Co1898   2.105   1_565  S
N1885      N1897   1.323       .  A
N1885      N1901   1.314       .  A
N1885     Co1894   2.100       .  S
C1886      N1890   1.343       .  A
C1886      C1900   1.491       .  S
C1887      C1906   1.460       .  S
C1887      H1891   1.077       .  S
N1888      C1899   1.334       .  A
C1892      N1908   1.364       .  A
C1892      C1904   1.470       .  S
Co1894    Cl1905   2.431       .  S
N1895      C1906   1.361       .  A
C1909      H1916   1.084       .  S
C1909      C1910   1.403       .  A
C1909      C1914   1.403       .  A
C1910      C1911   1.409       .  A
C1911      C1912   1.398       .  A
C1911      C1918   1.519       .  S
C1912      H1917   1.081       .  S
C1912      C1913   1.411       .  A
C1913      C1914   1.410       .  A
C1914      C1915   1.521       .  S
C1915      F1919   1.382       .  S
C1915      F1920   1.382       .  S
C1915      F1921   1.384       .  S
C1918      F1922   1.378       .  S
C1918      F1923   1.383       .  S
C1918      F1924   1.383       .  S
C1925      H1932   1.084       .  S
C1925      C1926   1.388       .  A
C1925      C1930   1.397       .  A
C1926      C1927   1.413       .  A
C1927      C1928   1.409       .  A
C1927      C1934   1.519       .  S
C1928      H1933   1.078       .  S
C1928      C1929   1.402       .  A
C1929      C1930   1.422       .  A
C1930      C1931   1.511       .  S
C1931      F1935   1.372       .  S
C1931      F1936   1.384       .  S
C1931      F1937   1.374       .  S
C1934      F1938   1.384       .  S
C1934      F1939   1.382       .  S
C1934      F1940   1.381       .  S
C1941      H1948   1.086       .  S
C1941      C1942   1.399       .  A
C1941      C1946   1.397       .  A
C1942      C1943   1.403       .  A
C1943      C1944   1.407       .  A
C1943      C1950   1.509       .  S
C1944      H1949   1.082       .  S
C1944      C1945   1.407       .  A
C1945      C1946   1.402       .  A
C1946      C1947   1.495       .  S
C1947      F1951   1.383       .  S
C1947      F1952   1.371       .  S
C1947      F1953   1.383       .  S
C1950      F1954   1.374       .  S
C1950      F1955   1.384       .  S
C1950      F1956   1.383       .  S
C1957      H1964   1.072       .  S
C1957      C1958   1.419       .  A
C1957      C1962   1.399       .  A
C1958      C1959   1.422       .  A
C1959      C1960   1.414       .  A
C1959      C1966   1.517       .  S
C1960      H1965   1.084       .  S
C1960      C1961   1.414       .  A
C1961      C1962   1.416       .  A
C1962      C1963   1.527       .  S
C1963      F1967   1.384       .  S
C1963      F1968   1.383       .  S
C1963      F1969   1.376       .  S
C1966      F1970   1.383       .  S
C1966      F1971   1.382       .  S
C1966      F1972   1.385       .  S
C1973      H1980   1.076       .  S
C1973      C1974   1.411       .  A
C1973      C1978   1.402       .  A
C1974      C1975   1.406       .  A
C1975      C1976   1.394       .  A
C1975      C1982   1.511       .  S
C1976      H1981   1.082       .  S
C1976      C1977   1.406       .  A
C1977      C1978   1.405       .  A
C1978      C1979   1.514       .  S
C1979      F1983   1.379   1_565  S
C1979      F1984   1.376       .  S
C1979      F1985   1.383       .  S
C1982      F1986   1.379       .  S
C1982      F1987   1.382       .  S
C1982      F1988   1.384       .  S
C1989      H1996   1.077       .  S
C1989      C1990   1.399       .  A
C1989      C1994   1.396       .  A
C1990      C1991   1.413       .  A
C1991      C1992   1.411       .  A
C1991      C1998   1.517   1_556  S
C1992      H1997   1.083       .  S
C1992      C1993   1.407       .  A
C1993      C1994   1.414       .  A
C1994      C1995   1.522       .  S
C1995      F1999   1.383       .  S
C1995      F2000   1.382       .  S
C1995      F2001   1.383       .  S
C1998      F2002   1.382       .  S
C1998      F2003   1.384       .  S
C1998      F2004   1.384       .  S
C2005      H2012   1.081       .  S
C2005      C2006   1.413       .  A
C2005      C2010   1.421       .  A
C2006      C2007   1.407       .  A
C2007      C2008   1.395       .  A
C2007      C2014   1.523       .  S
C2008      H2013   1.073       .  S
C2008      C2009   1.409       .  A
C2009      C2010   1.411       .  A
C2010      C2011   1.512       .  S
C2011      F2015   1.384       .  S
C2011      F2016   1.381       .  S
C2011      F2017   1.383       .  S
C2014      F2018   1.382       .  S
C2014      F2019   1.381       .  S
C2014      F2020   1.385       .  S
C2021      H2028   1.083       .  S
C2021      C2022   1.414       .  A
C2021      C2026   1.419       .  A
C2022      C2023   1.401       .  A
C2023      C2024   1.409       .  A
C2023      C2030   1.503       .  S
C2024      H2029   1.080       .  S
C2024      C2025   1.414       .  A
C2025      C2026   1.431       .  A
C2026      C2027   1.510       .  S
C2027      F2031   1.385       .  S
C2027      F2032   1.382       .  S
C2027      F2033   1.380       .  S
C2030      F2034   1.383       .  S
C2030      F2035   1.380       .  S
C2030      F2036   1.371       .  S
C2037      H2044   1.077       .  S
C2037      C2038   1.401       .  A
C2037      C2042   1.421       .  A
C2038      C2039   1.405       .  A
C2039      C2040   1.396       .  A
C2039      C2046   1.514       .  S
C2040      H2045   1.084       .  S
C2040      C2041   1.405       .  A
C2041      C2042   1.430       .  A
C2042      C2043   1.519       .  S
C2043      F2047   1.383       .  S
C2043      F2048   1.383       .  S
C2043      F2049   1.384       .  S
C2046      F2050   1.384   1_556  S
C2046      F2051   1.372   1_556  S
C2046      F2052   1.384       .  S
C2053      H2060   1.084   1_455  S
C2053      C2054   1.409       .  A
C2053      C2058   1.408       .  A
C2054      C2055   1.412       .  A
C2055      C2056   1.393       .  A
C2055      C2062   1.504       .  S
C2056      H2061   1.086       .  S
C2056      C2057   1.397       .  A
C2057      C2058   1.416       .  A
C2058      C2059   1.513       .  S
C2059      F2063   1.385   1_455  S
C2059      F2064   1.383   1_455  S
C2059      F2065   1.383       .  S
C2062      F2066   1.373       .  S
C2062      F2067   1.383       .  S
C2062      F2068   1.380       .  S
C2069      H2076   1.087       .  S
C2069      C2070   1.390       .  A
C2069      C2074   1.390       .  A
C2070      C2071   1.402       .  A
C2071      C2072   1.412       .  A
C2071      C2078   1.508       .  S
C2072      H2077   1.083       .  S
C2072      C2073   1.409       .  A
C2073      C2074   1.435       .  A
C2074      C2075   1.528       .  S
C2075      F2079   1.382       .  S
C2075      F2080   1.376       .  S
C2075      F2081   1.362       .  S
C2078      F2082   1.383       .  S
C2078      F2083   1.383       .  S
C2078      F2084   1.376       .  S
C2085      H2092   1.084       .  S
C2085      C2086   1.400       .  A
C2085      C2090   1.392       .  A
C2086      C2087   1.422       .  A
C2087      C2088   1.409       .  A
C2087      C2094   1.525       .  S
C2088      H2093   1.073       .  S
C2088      C2089   1.416       .  A
C2089      C2090   1.435       .  A
C2090      C2091   1.519       .  S
C2091      F2095   1.382       .  S
C2091      F2096   1.383       .  S
C2091      F2097   1.362       .  S
C2094      F2098   1.384       .  S
C2094      F2099   1.379       .  S
C2094      F2100   1.385   1_455  S
C2101      N2119   1.353       .  A
C2101      C2138   1.482       .  S
C2101      C2271   1.506       .  S
N2102      N2119   1.326       .  A
N2102      N2124   1.318       .  A
N2102     Co2664   2.102   1_554  S
C2103      N2128   1.363       .  A
C2103      C2141   1.479       .  S
C2103      H2148   1.081       .  S
H2104      C2145   1.081       .  S
C2105      N2129   1.326       .  A
C2105      C2109   1.445       .  S
C2105      H2134   1.072       .  S
Co2106     N2649   2.122       .  S
Co2106     N2639   2.081       .  S
Co2106     N2146   2.133       .  S
Co2106     N2122   2.078       .  S
Co2106    Cl2675   2.435       .  S
N2107      C2145   1.372       .  A
N2107      N2114   1.325       .  A
N2107     Co2108   2.152   1_554  S
Co2108     N2111   2.146   1_556  S
Co2108     N2653   2.117       .  S
Co2108     N2640   2.145       .  S
Co2108    Cl2150   2.546       .  S
C2109      N2147   1.373       .  A
C2109      C2265   1.510       .  S
N2110      N2117   1.320       .  A
N2110      N2140   1.327       .  A
N2110     Co2143   2.080   1_554  S
N2111      N2129   1.321       .  A
N2111      N2147   1.347       .  A
N2112      C2141   1.344       .  A
N2112      N2122   1.308       .  A
H2113      C2138   1.082       .  S
N2114      N2135   1.314       .  A
N2114     Co2631   2.099   1_554  S
N2115      N2133   1.315       .  A
N2115      N2120   1.336       .  A
N2115     Co2633   2.124       .  S
C2116      N2120   1.366       .  A
C2116      C2144   1.474       .  S
C2116      C2285   1.489       .  S
N2117      C2132   1.333       .  A
N2117     Co2664   2.086   1_554  S
C2118      N2146   1.351       .  A
C2118      C2121   1.480       .  S
C2118      H2152   1.079       .  S
C2121      N2142   1.360       .  A
C2121      C2277   1.491       .  S
N2122      N2128   1.321       .  A
N2123      C2149   1.343       .  A
N2123      N2125   1.315       .  A
N2123     Co2139   2.100       .  S
N2124      C2138   1.361       .  A
N2124     Co2631   2.130   1_554  S
N2125      N2153   1.332       .  A
N2125     Co2668   2.095       .  S
H2126      C2149   1.082       .  S
H2127      C2144   1.081       .  S
N2128     Co2633   2.120       .  S
N2129     Co2143   2.087   1_554  S
N2130      N2142   1.329       .  A
N2130      N2146   1.318       .  A
N2130     Co2139   2.105       .  S
C2131      N2135   1.346       .  A
C2131      C2145   1.493       .  S
C2131      C2160   1.508       .  S
C2132      C2151   1.461       .  S
C2132      H2136   1.082       .  S
N2133      C2144   1.332       .  A
N2133     Co2668   2.091       .  S
C2137      N2153   1.357       .  A
C2137      C2149   1.474       .  S
C2137      C2168   1.489       .  S
Co2139     N2627   2.105       .  S
Co2139     N2642   2.100       .  S
Co2139    Cl2675   2.464       .  S
N2140      C2151   1.348       .  A
C2141      C2176   1.487       .  S
Co2143     N2650   2.091       .  S
Co2143     N2658   2.084       .  S
Co2143    Cl2150   2.400       .  S
Cl2150    Co2631   2.394       .  S
Cl2150    Co2664   2.485       .  S
C2151      C2154   1.459       .  S
C2154      N2155   1.365       .  A
C2154      N2159   1.351       .  A
N2155      C2156   1.364       .  A
C2156      N2157   1.360       .  A
C2156      C2242   1.469       .  S
N2157      C2158   1.346       .  A
C2158      N2159   1.348       .  A
C2158      C2611   1.495       .  S
C2160      N2161   1.359       .  A
C2160      N2165   1.389       .  A
N2161      C2162   1.341       .  A
C2162      N2163   1.337       .  A
C2162      C2595   1.463       .  S
N2163      C2164   1.354       .  A
C2164      N2165   1.391       .  A
C2164      C2252   1.498       .  S
C2166      N2167   1.377       .  A
C2166      N2171   1.355       .  A
C2166      C2262   1.488       .  S
N2167      C2168   1.376       .  A
C2168      N2169   1.355       .  A
N2169      C2170   1.353       .  A
C2170      N2171   1.353       .  A
C2170      C2582   1.470       .  S
C2172      N2173   1.352       .  A
C2172      N2177   1.375       .  A
C2172      C2248   1.469       .  S
N2173      C2174   1.341       .  A
C2174      N2175   1.349       .  A
C2174      C2566   1.477       .  S
N2175      C2176   1.360       .  A
C2176      N2177   1.374       .  A
N2178      C2182   1.351       .  A
N2178      H2210   1.035       .  S
N2179      C2711   1.351   1_554  A
N2179      C2187   1.348       .  A
N2180      C2184   1.343       .  A
N2180      H2211   1.039       .  S
N2181      C2713   1.335       .  A
N2181      C2189   1.341   1_556  A
C2182      C2190   1.395       .  A
C2182      C2198   1.427       .  A
C2183      C2199   1.403       .  A
C2183      C2191   1.371       .  A
C2184      C2192   1.388       .  A
C2184      C2201   1.416       .  A
C2185      C2200   1.424       .  A
C2185      C2193   1.386       .  A
C2186      N2704   1.359       .  A
C2186      C2198   1.432       .  A
C2186      C2194   1.388       .  A
C2187      C2201   1.412       .  A
C2187      C2195   1.385       .  A
C2188      N2706   1.334       .  A
C2188      C2196   1.385       .  A
C2188      C2199   1.387       .  A
C2189      C2197   1.386   1_554  A
C2189      C2200   1.400       .  A
C2190      H2202   1.082       .  S
C2191      H2203   1.083       .  S
C2192      H2204   1.082       .  S
C2193      H2205   1.083       .  S
C2194      H2206   1.083       .  S
C2194      C2720   1.380       .  A
C2195      H2207   1.082       .  S
C2195      C2719   1.383   1_554  A
C2196      H2208   1.078       .  S
C2196      C2722   1.374       .  A
C2197      H2209   1.082   1_556  S
C2197      C2721   1.373       .  A
C2198      C2563   1.502       .  S
C2199      C2579   1.498       .  S
C2200      C2614   1.521       .  S
C2201      C2598   1.489       .  S
C2212      N2230   1.357       .  A
C2212      C2249   1.487       .  S
C2212      C2335   1.516       .  S
N2213      N2230   1.327       .  A
N2213      N2235   1.318       .  A
C2214      N2239   1.364       .  A
C2214      C2252   1.478       .  S
C2214      H2259   1.081       .  S
H2215      C2256   1.082       .  S
C2216      N2240   1.322       .  A
C2216      C2220   1.448       .  S
C2216      H2245   1.082       .  S
Co2217     N2257   2.109   1_455  S
Co2217     N2233   2.114   1_455  S
Co2217    Cl2261   2.422       .  S
N2218      C2256   1.352       .  A
N2218      N2225   1.321       .  A
Co2219     N2239   2.123   1_455  S
Co2219     N2226   2.108   1_455  S
Co2219    Cl2261   2.532       .  S
C2220      N2258   1.373       .  A
C2220      C2323   1.500       .  S
N2221      N2228   1.318       .  A
N2221      N2251   1.335       .  A
N2222      N2240   1.321       .  A
N2222      N2258   1.345       .  A
N2223      C2252   1.352       .  A
N2223      N2233   1.317       .  A
H2224      C2249   1.082       .  S
N2225      N2246   1.313       .  A
N2226      N2244   1.318       .  A
N2226      N2231   1.339       .  A
C2227      N2231   1.363       .  A
C2227      C2255   1.482       .  S
C2227      C2345   1.502       .  S
N2228      C2243   1.341       .  A
C2229      N2257   1.351       .  A
C2229      C2232   1.472       .  S
C2229      H2263   1.082       .  S
C2232      N2253   1.350       .  A
C2232      C2331   1.485       .  S
N2233      N2239   1.325       .  A
N2234      C2260   1.331       .  A
N2234      N2236   1.319       .  A
N2234     Co2250   2.088   1_655  S
N2235      C2249   1.364       .  A
N2236      N2264   1.332       .  A
N2236     Co2254   2.073   1_655  S
H2237      C2260   1.082       .  S
H2238      C2255   1.082       .  S
N2241      N2253   1.325       .  A
N2241      N2257   1.318       .  A
N2241     Co2250   2.090   1_655  S
C2242      N2246   1.344       .  A
C2242      C2256   1.477       .  S
C2243      C2262   1.466       .  S
C2243      H2247   1.082       .  S
N2244      C2255   1.336       .  A
N2244     Co2254   2.123   1_655  S
C2248      N2264   1.349       .  A
C2248      C2260   1.459       .  S
Co2250    Cl2261   2.454       .  S
N2251      C2262   1.362       .  A
Co2254    Cl2261   2.414       .  S
C2265      N2266   1.376       .  A
C2265      N2270   1.384       .  A
N2266      C2267   1.357       .  A
C2267      N2268   1.344       .  A
C2267      C2550   1.519       .  S
N2268      C2269   1.355       .  A
C2269      N2270   1.380       .  A
C2269      C2411   1.497       .  S
C2271      N2272   1.389       .  A
C2271      N2276   1.373       .  A
N2272      C2273   1.380       .  A
C2273      N2274   1.352       .  A
C2273      C2421   1.512       .  S
N2274      C2275   1.340       .  A
C2275      N2276   1.358       .  A
C2275      C2534   1.499       .  S
C2277      N2278   1.381       .  A
C2277      N2282   1.348       .  A
N2278      C2279   1.383       .  A
C2279      N2280   1.359       .  A
C2279      C2417   1.502       .  S
N2280      C2281   1.356       .  A
C2281      N2282   1.346       .  A
C2281      C2518   1.466       .  S
C2283      N2284   1.382       .  A
C2283      N2288   1.356       .  A
C2283      C2431   1.488       .  S
N2284      C2285   1.382       .  A
C2285      N2286   1.349       .  A
N2286      C2287   1.338       .  A
C2287      N2288   1.340       .  A
C2287      C2502   1.470       .  S
N2289      C2819   1.340       .  A
N2289      C2293   1.355       .  A
N2289      H2321   1.034       .  S
N2290      C3347   1.344       .  A
N2290      C2298   1.347       .  A
N2291      C2821   1.340       .  A
N2291      C2295   1.341       .  A
N2291      H2322   1.045       .  S
N2292      C3349   1.347       .  A
N2292      C2300   1.343       .  A
C2293      C2301   1.386       .  A
C2293      C2309   1.414       .  A
C2294      N2814   1.338       .  A
C2294      C2310   1.401       .  A
C2294      C2302   1.382       .  A
C2295      C2303   1.379       .  A
C2295      C2312   1.399       .  A
C2296      N2816   1.340       .  A
C2296      C2311   1.401       .  A
C2296      C2304   1.387       .  A
C2297      N3340   1.346   1_545  A
C2297      C2309   1.414       .  A
C2297      C2305   1.384       .  A
C2298      C2312   1.423       .  A
C2298      C2306   1.388       .  A
C2299      N3342   1.346       .  A
C2299      C2307   1.384       .  A
C2299      C2310   1.411   1_565  A
C2300      C2308   1.390       .  A
C2300      C2311   1.415       .  A
C2301      H2313   1.082       .  S
C2301      C2827   1.375       .  A
C2302      H2314   1.073       .  S
C2302      C2826   1.375       .  A
C2303      H2315   1.082       .  S
C2303      C2829   1.388       .  A
C2304      H2316   1.076       .  S
C2304      C2828   1.388       .  A
C2305      H2317   1.082       .  S
C2305      C3356   1.393   1_545  A
C2306      H2318   1.076       .  S
C2306      C3355   1.391       .  A
C2307      H2319   1.082       .  S
C2307      C3358   1.379       .  A
C2308      H2320   1.082       .  S
C2308      C3357   1.381       .  A
C2309      C2531   1.490       .  S
C2310      C2515   1.478       .  S
C2311      C2499   1.482       .  S
C2312      C2547   1.523       .  S
C2323      N2324   1.381       .  A
C2323      N2328   1.362       .  A
N2324      C2325   1.379       .  A
C2325      N2326   1.353       .  A
C2325      C2381   1.493       .  S
N2326      C2327   1.342       .  A
C2327      N2328   1.345       .  A
C2327      C2486   1.494       .  S
C2329      N2330   1.368       .  A
C2329      N2334   1.345       .  A
C2329      C2396   1.467       .  S
N2330      C2331   1.372       .  A
C2331      N2332   1.367       .  A
N2332      C2333   1.358       .  A
C2333      N2334   1.334       .  A
C2333      C2467   1.465       .  S
C2335      N2336   1.390       .  A
C2335      N2340   1.363       .  A
N2336      C2337   1.389       .  A
C2337      N2338   1.346       .  A
C2337      C2401   1.498       .  S
N2338      C2339   1.336       .  A
C2339      N2340   1.353       .  A
C2339      C2451   1.462       .  S
C2341      N2342   1.363       .  A
C2341      N2346   1.393       .  A
C2341      C2389   1.519       .  S
N2342      C2343   1.348       .  A
C2343      N2344   1.332       .  A
C2343      C2435   1.462       .  S
N2344      C2345   1.346       .  A
C2345      N2346   1.393       .  A
N2347      C3402   1.349       .  A
N2347      C2351   1.350       .  A
N2347      H2379   1.042       .  S
N2348      C2356   1.347       .  A
N2349      C3404   1.338       .  A
N2349      C2353   1.342       .  A
N2349      H2380   1.043       .  S
N2350      C2358   1.350       .  A
C2351      C2359   1.384       .  A
C2351      C2367   1.403       .  A
C2352      N3397   1.351       .  A
C2352      C2368   1.411   1_565  A
C2352      C2360   1.383       .  A
C2353      C2361   1.376       .  A
C2353      C2370   1.399       .  A
C2354      N3399   1.339   1_545  A
C2354      C2369   1.391       .  A
C2354      C2362   1.383       .  A
C2355      C2367   1.407       .  A
C2355      C2363   1.382       .  A
C2356      C2370   1.407       .  A
C2356      C2364   1.390       .  A
C2357      C2365   1.390       .  A
C2357      C2368   1.419       .  A
C2358      C2366   1.381       .  A
C2358      C2369   1.401       .  A
C2359      H2371   1.077       .  S
C2359      C3410   1.374       .  A
C2360      H2372   1.073       .  S
C2360      C3409   1.367       .  A
C2361      H2373   1.076       .  S
C2361      C3412   1.388       .  A
C2362      H2374   1.082       .  S
C2362      C3411   1.388   1_545  A
C2363      H2375   1.083       .  S
C2364      H2376   1.082       .  S
C2365      H2377   1.080       .  S
C2366      H2378   1.082       .  S
C2367      C2438   1.492       .  S
C2368      C2470   1.491       .  S
C2369      C2454   1.493       .  S
C2370      C2483   1.527       .  S
C2381      N2399   1.349       .  A
C2381      C2418   1.477       .  S
N2382      N2399   1.317       .  A
N2382      N2404   1.315       .  A
N2382     Co3469   2.098       .  S
C2383      N2408   1.376       .  A
C2383      C2421   1.495       .  S
C2383      H2428   1.080       .  S
H2384      C2425   1.081       .  S
C2385      N2409   1.334       .  A
C2385      C2389   1.463       .  S
C2385      H2414   1.082       .  S
Co2386     N3454   2.110   1_545  S
Co2386     N3444   2.090   1_545  S
Co2386     N2426   2.138       .  S
Co2386     N2402   2.075       .  S
Co2386    Cl2430   2.437       .  S
N2387      C2425   1.368       .  A
N2387      N2394   1.324       .  A
N2387     Co3438   2.146       .  S
Co2388     N3437   2.140   1_545  S
Co2388     N3441   2.155   1_545  S
Co2388     N2408   2.148       .  S
Co2388     N2395   2.094       .  S
Co2388    Cl2430   2.514       .  S
C2389      N2427   1.374       .  A
N2390      N2397   1.317       .  A
N2390      N2420   1.338       .  A
N2390     Co2423   2.105       .  S
N2391      N2409   1.325       .  A
N2391      N2427   1.347       .  A
N2391     Co3438   2.159       .  S
N2392      C2421   1.342       .  A
N2392      N2402   1.303       .  A
H2393      C2418   1.078       .  S
N2394      N2415   1.313       .  A
N2394     Co3436   2.083       .  S
N2395      N2413   1.317       .  A
N2395      N2400   1.328       .  A
C2396      N2400   1.358       .  A
C2396      C2424   1.472       .  S
N2397      C2412   1.330       .  A
N2397     Co3469   2.092       .  S
C2398      N2426   1.359       .  A
C2398      C2401   1.480       .  S
C2398      H2432   1.072       .  S
C2401      N2422   1.360       .  A
N2402      N2408   1.319       .  A
N2403      C2429   1.346       .  A
N2403      N2405   1.312       .  A
N2403     Co2419   2.095       .  S
N2404      C2418   1.361       .  A
N2404     Co3436   2.099       .  S
N2405      N2433   1.335       .  A
N2405     Co3473   2.122       .  S
H2406      C2429   1.081       .  S
H2407      C2424   1.081       .  S
N2409     Co2423   2.116       .  S
N2410      N2422   1.324       .  A
N2410      N2426   1.314       .  A
N2410     Co2419   2.095       .  S
C2411      N2415   1.344       .  A
C2411      C2425   1.487       .  S
C2412      C2431   1.460       .  S
C2412      H2416   1.078       .  S
N2413      C2424   1.331       .  A
N2413     Co3473   2.089       .  S
C2417      N2433   1.364       .  A
C2417      C2429   1.471       .  S
Co2419     N3432   2.094   1_545  S
Co2419     N3447   2.092   1_545  S
Co2419    Cl2430   2.450       .  S
N2420      C2431   1.361       .  A
Co2423     N3455   2.135       .  S
Co2423     N3463   2.096       .  S
Co2423    Cl3480   2.436       .  S
Cl2430    Co3473   2.434       .  S
C2434      H2441   1.085       .  S
C2434      C2435   1.404       .  A
C2434      C2439   1.401       .  A
C2435      C2436   1.414       .  A
C2436      C2437   1.400       .  A
C2436      C2443   1.521       .  S
C2437      H2442   1.079       .  S
C2437      C2438   1.411       .  A
C2438      C2439   1.416       .  A
C2439      C2440   1.517       .  S
C2440      F2444   1.383       .  S
C2440      F2445   1.384       .  S
C2440      F2446   1.383       .  S
C2443      F2447   1.382       .  S
C2443      F2448   1.382   1_655  S
C2443      F2449   1.379   1_655  S
C2450      H2457   1.083       .  S
C2450      C2451   1.391       .  A
C2450      C2455   1.401       .  A
C2451      C2452   1.414       .  A
C2452      C2453   1.407       .  A
C2452      C2459   1.517       .  S
C2453      H2458   1.079       .  S
C2453      C2454   1.398       .  A
C2454      C2455   1.426       .  A
C2455      C2456   1.517       .  S
C2456      F2460   1.373       .  S
C2456      F2461   1.384   1_545  S
C2456      F2462   1.374   1_545  S
C2459      F2463   1.383       .  S
C2459      F2464   1.381       .  S
C2459      F2465   1.376       .  S
C2466      H2473   1.080       .  S
C2466      C2467   1.411       .  A
C2466      C2471   1.408       .  A
C2467      C2468   1.403       .  A
C2468      C2469   1.405       .  A
C2468      C2475   1.517       .  S
C2469      H2474   1.083   1_545  S
C2469      C2470   1.414       .  A
C2470      C2471   1.409       .  A
C2471      C2472   1.521       .  S
C2472      F2476   1.374       .  S
C2472      F2477   1.383       .  S
C2472      F2478   1.380       .  S
C2475      F2479   1.384       .  S
C2475      F2480   1.383       .  S
C2475      F2481   1.377       .  S
C2482      H2489   1.075       .  S
C2482      C2483   1.418       .  A
C2482      C2487   1.401       .  A
C2483      C2484   1.420       .  A
C2484      C2485   1.410       .  A
C2484      C2491   1.517       .  S
C2485      H2490   1.084       .  S
C2485      C2486   1.411       .  A
C2486      C2487   1.420       .  A
C2487      C2488   1.528       .  S
C2488      F2492   1.385       .  S
C2488      F2493   1.383       .  S
C2488      F2494   1.377       .  S
C2491      F2495   1.382       .  S
C2491      F2496   1.380       .  S
C2491      F2497   1.384       .  S
C2498      H2505   1.078       .  S
C2498      C2499   1.405       .  A
C2498      C2503   1.403       .  A
C2499      C2500   1.406       .  A
C2500      C2501   1.395       .  A
C2500      C2507   1.510       .  S
C2501      H2506   1.083       .  S
C2501      C2502   1.408       .  A
C2502      C2503   1.411       .  A
C2503      C2504   1.513       .  S
C2504      F2508   1.378       .  S
C2504      F2509   1.373       .  S
C2504      F2510   1.383       .  S
C2507      F2511   1.380       .  S
C2507      F2512   1.383       .  S
C2507      F2513   1.383       .  S
C2514      H2521   1.078       .  S
C2514      C2515   1.400       .  A
C2514      C2519   1.399       .  A
C2515      C2516   1.412       .  A
C2516      C2517   1.407       .  A
C2516      C2523   1.516       .  S
C2517      H2522   1.083       .  S
C2517      C2518   1.404       .  A
C2518      C2519   1.414       .  A
C2519      C2520   1.519       .  S
C2520      F2524   1.382       .  S
C2520      F2525   1.383       .  S
C2520      F2526   1.382       .  S
C2523      F2527   1.381       .  S
C2523      F2528   1.384       .  S
C2523      F2529   1.384       .  S
C2530      H2537   1.080       .  S
C2530      C2531   1.414       .  A
C2530      C2535   1.424       .  A
C2531      C2532   1.404       .  A
C2532      C2533   1.390       .  A
C2532      C2539   1.516       .  S
C2533      H2538   1.067       .  S
C2533      C2534   1.406       .  A
C2534      C2535   1.411       .  A
C2535      C2536   1.509       .  S
C2536      F2540   1.382       .  S
C2536      F2541   1.381       .  S
C2536      F2542   1.383       .  S
C2539      F2543   1.381   1_545  S
C2539      F2544   1.380       .  S
C2539      F2545   1.385       .  S
C2546      H2553   1.083       .  S
C2546      C2547   1.414       .  A
C2546      C2551   1.420       .  A
C2547      C2548   1.399       .  A
C2548      C2549   1.405       .  A
C2548      C2555   1.503       .  S
C2549      H2554   1.080       .  S
C2549      C2550   1.416       .  A
C2550      C2551   1.430       .  A
C2551      C2552   1.507       .  S
C2552      F2556   1.385       .  S
C2552      F2557   1.383       .  S
C2552      F2558   1.377       .  S
C2555      F2559   1.383       .  S
C2555      F2560   1.381       .  S
C2555      F2561   1.375       .  S
C2562      H2569   1.080       .  S
C2562      C2563   1.419       .  A
C2562      C2567   1.424       .  A
C2563      C2564   1.417       .  A
C2564      C2565   1.384       .  A
C2564      C2571   1.522       .  S
C2565      H2570   1.074       .  S
C2565      C2566   1.398       .  A
C2566      C2567   1.409       .  A
C2567      C2568   1.518       .  S
C2568      F2572   1.381       .  S
C2568      F2573   1.383       .  S
C2568      F2574   1.374       .  S
C2571      F2575   1.380       .  S
C2571      F2576   1.378       .  S
C2571      F2577   1.385       .  S
C2578      H2585   1.083       .  S
C2578      C2579   1.412       .  A
C2578      C2583   1.408       .  A
C2579      C2580   1.412       .  A
C2580      C2581   1.396       .  A
C2580      C2587   1.507       .  S
C2581      H2586   1.083       .  S
C2581      C2582   1.399       .  A
C2582      C2583   1.413       .  A
C2583      C2584   1.517       .  S
C2584      F2588   1.385       .  S
C2584      F2589   1.382       .  S
C2584      F2590   1.383       .  S
C2587      F2591   1.380       .  S
C2587      F2592   1.381       .  S
C2587      F2593   1.375       .  S
C2594      H2601   1.086       .  S
C2594      C2595   1.392       .  A
C2594      C2599   1.393       .  A
C2595      C2596   1.406       .  A
C2596      C2597   1.413       .  A
C2596      C2603   1.510       .  S
C2597      H2602   1.083       .  S
C2597      C2598   1.408       .  A
C2598      C2599   1.434       .  A
C2599      C2600   1.528       .  S
C2600      F2604   1.384       .  S
C2600      F2605   1.377       .  S
C2600      F2606   1.366       .  S
C2603      F2607   1.383       .  S
C2603      F2608   1.383       .  S
C2603      F2609   1.379       .  S
C2610      H2617   1.083       .  S
C2610      C2611   1.406       .  A
C2610      C2615   1.396       .  A
C2611      C2612   1.422       .  A
C2612      C2613   1.409       .  A
C2612      C2619   1.526       .  S
C2613      H2618   1.074       .  S
C2613      C2614   1.416       .  A
C2614      C2615   1.428       .  A
C2615      C2616   1.519       .  S
C2616      F2620   1.382       .  S
C2616      F2621   1.382   1_554  S
C2616      F2622   1.367       .  S
C2619      F2623   1.384       .  S
C2619      F2624   1.380       .  S
C2619      F2625   1.385       .  S
C2626      N2644   1.353       .  A
C2626      C2663   1.479       .  S
C2626      C2796   1.502       .  S
N2627      N2644   1.326       .  A
N2627      N2649   1.319       .  A
C2628      N2653   1.359       .  A
C2628      C2666   1.486       .  S
C2628      H2673   1.081       .  S
H2629      C2670   1.081       .  S
C2630      N2654   1.325       .  A
C2630      C2634   1.450       .  S
C2630      H2659   1.070       .  S
Co2631     N2671   2.098       .  S
Co2631     N2647   2.088       .  S
N2632      C2670   1.369       .  A
N2632      N2639   1.324       .  A
N2632     Co2633   2.149       .  S
Co2633     N2636   2.140       .  S
Co2633    Cl2675   2.526       .  S
C2634      N2672   1.373       .  A
C2634      C2790   1.516       .  S
N2635      N2642   1.320       .  A
N2635      N2665   1.332       .  A
N2635     Co2668   2.095       .  S
N2636      N2654   1.320       .  A
N2636      N2672   1.349       .  A
N2637      C2666   1.352       .  A
N2637      N2647   1.311       .  A
H2638      C2663   1.082       .  S
N2639      N2660   1.311       .  A
N2640      N2658   1.317       .  A
N2640      N2645   1.338       .  A
C2641      N2645   1.370       .  A
C2641      C2669   1.471       .  S
C2641      C2810   1.495       .  S
N2642      C2657   1.336       .  A
C2643      N2671   1.345       .  A
C2643      C2646   1.470       .  S
C2643      H2677   1.080       .  S
C2646      N2667   1.361       .  A
C2646      C2802   1.482       .  S
N2647      N2653   1.317       .  A
N2648      C2674   1.341       .  A
N2648      N2650   1.316       .  A
N2648     Co2664   2.090       .  S
N2649      C2663   1.359       .  A
N2650      N2678   1.330       .  A
H2651      C2674   1.082       .  S
H2652      C2669   1.082       .  S
N2654     Co2668   2.096       .  S
N2655      N2667   1.328       .  A
N2655      N2671   1.313       .  A
N2655     Co2664   2.100       .  S
C2656      N2660   1.345       .  A
C2656      C2670   1.487       .  S
C2656      C2685   1.498       .  S
C2657      C2676   1.465       .  S
C2657      H2661   1.082       .  S
N2658      C2669   1.331       .  A
C2662      N2678   1.354       .  A
C2662      C2674   1.467       .  S
C2662      C2693   1.482       .  S
N2665      C2676   1.353       .  A
C2666      C2701   1.487       .  S
Co2668    Cl2675   2.417       .  S
C2676      C2679   1.475       .  S
C2679      N2680   1.374       .  A
C2679      N2684   1.352       .  A
N2680      C2681   1.372       .  A
C2681      N2682   1.358       .  A
C2681      C2767   1.480       .  S
N2682      C2683   1.343       .  A
C2683      N2684   1.348       .  A
C2683      C3136   1.494       .  S
C2685      N2686   1.356       .  A
C2685      N2690   1.384       .  A
N2686      C2687   1.339       .  A
C2687      N2688   1.342       .  A
C2687      C3120   1.464       .  S
N2688      C2689   1.355       .  A
C2689      N2690   1.387       .  A
C2689      C2777   1.492       .  S
C2691      N2692   1.370       .  A
C2691      N2696   1.355       .  A
C2691      C2787   1.473       .  S
N2692      C2693   1.369       .  A
C2693      N2694   1.358       .  A
N2694      C2695   1.357       .  A
C2695      N2696   1.351       .  A
C2695      C3107   1.470       .  S
C2697      N2698   1.360       .  A
C2697      N2702   1.379       .  A
C2697      C2773   1.484       .  S
N2698      C2699   1.350       .  A
C2699      N2700   1.339       .  A
C2699      C3091   1.476       .  S
N2700      C2701   1.348       .  A
C2701      N2702   1.375       .  A
N2703      C2707   1.351       .  A
N2703      H2735   1.034       .  S
N2704      C2712   1.356       .  A
N2705      C2709   1.340       .  A
N2705      H2736   1.039       .  S
N2706      C2714   1.338       .  A
C2707      C2715   1.397       .  A
C2707      C2723   1.442       .  A
C2708      C2724   1.402       .  A
C2708      C2716   1.373       .  A
C2709      C2717   1.393       .  A
C2709      C2726   1.415       .  A
C2710      C2725   1.426       .  A
C2710      C2718   1.386       .  A
C2711      C2723   1.422       .  A
C2711      C2719   1.386       .  A
C2712      C2726   1.426       .  A
C2712      C2720   1.385       .  A
C2713      C2721   1.386       .  A
C2713      C2724   1.391       .  A
C2714      C2722   1.387       .  A
C2714      C2725   1.397       .  A
C2715      H2727   1.061       .  S
C2716      H2728   1.083       .  S
C2717      H2729   1.082       .  S
C2718      H2730   1.083       .  S
C2719      H2731   1.082       .  S
C2720      H2732   1.082       .  S
C2721      H2733   1.078       .  S
C2722      H2734   1.082       .  S
C2723      C3088   1.505       .  S
C2724      C3104   1.492       .  S
C2725      C3139   1.527       .  S
C2726      C3123   1.486       .  S
C2737      N2755   1.359       .  A
C2737      C2774   1.486       .  S
C2737      C2860   1.518       .  S
N2738      N2755   1.329       .  A
N2738      N2760   1.318       .  A
C2739      N2764   1.360       .  A
C2739      C2777   1.471       .  S
C2739      H2784   1.081       .  S
H2740      C2781   1.082       .  S
C2741      N2765   1.319       .  A
C2741      C2745   1.446       .  S
C2741      H2770   1.081       .  S
Co2742     N2782   2.106   1_455  S
Co2742     N2758   2.128   1_455  S
Co2742    Cl2786   2.421       .  S
N2743      C2781   1.356       .  A
N2743      N2750   1.321       .  A
Co2744     N2764   2.102   1_455  S
Co2744     N2751   2.113   1_455  S
Co2744    Cl2786   2.534       .  S
C2745      N2783   1.373       .  A
C2745      C2848   1.500       .  S
N2746      N2753   1.318       .  A
N2746      N2776   1.331       .  A
N2747      N2765   1.320       .  A
N2747      N2783   1.346       .  A
N2748      C2777   1.354       .  A
N2748      N2758   1.319       .  A
H2749      C2774   1.082       .  S
N2750      N2771   1.314       .  A
N2751      N2769   1.316       .  A
N2751      N2756   1.338       .  A
C2752      N2756   1.364       .  A
C2752      C2780   1.483       .  S
C2752      C2870   1.500       .  S
N2753      C2768   1.337       .  A
C2754      N2782   1.350       .  A
C2754      C2757   1.470       .  S
C2754      H2788   1.082       .  S
C2757      N2778   1.351       .  A
C2757      C2856   1.476       .  S
N2758      N2764   1.324       .  A
N2759      C2785   1.341       .  A
N2759      N2761   1.318       .  A
N2759     Co2775   2.109   1_655  S
N2760      C2774   1.364       .  A
N2761      N2789   1.330       .  A
N2761     Co2779   2.078   1_655  S
H2762      C2785   1.082       .  S
H2763      C2780   1.082       .  S
N2766      N2778   1.322       .  A
N2766      N2782   1.318       .  A
N2766     Co2775   2.083   1_655  S
C2767      N2771   1.347       .  A
C2767      C2781   1.483       .  S
C2768      C2787   1.464       .  S
C2768      H2772   1.082       .  S
N2769      C2780   1.335       .  A
N2769     Co2779   2.116   1_655  S
C2773      N2789   1.352       .  A
C2773      C2785   1.470       .  S
Co2775    Cl2786   2.462       .  S
N2776      C2787   1.357       .  A
Co2779    Cl2786   2.414       .  S
C2790      N2791   1.371       .  A
C2790      N2795   1.387       .  A
N2791      C2792   1.353       .  A
C2792      N2793   1.341       .  A
C2792      C3075   1.515       .  S
N2793      C2794   1.354       .  A
C2794      N2795   1.385       .  A
C2794      C2936   1.499       .  S
C2796      N2797   1.384       .  A
C2796      N2801   1.371       .  A
N2797      C2798   1.377       .  A
C2798      N2799   1.351       .  A
C2798      C2946   1.503       .  S
N2799      C2800   1.338       .  A
C2800      N2801   1.359       .  A
C2800      C3059   1.492       .  S
C2802      N2803   1.375       .  A
C2802      N2807   1.351       .  A
N2803      C2804   1.376       .  A
C2804      N2805   1.362       .  A
C2804      C2942   1.497       .  S
N2805      C2806   1.360       .  A
C2806      N2807   1.349       .  A
C2806      C3043   1.473       .  S
C2808      N2809   1.384       .  A
C2808      N2813   1.359       .  A
C2808      C2956   1.492       .  S
N2809      C2810   1.383       .  A
C2810      N2811   1.350       .  A
N2811      C2812   1.339       .  A
C2812      N2813   1.341       .  A
C2812      C3027   1.472       .  S
N2814      C2818   1.357       .  A
N2814      H2846   1.021       .  S
N2815      C3872   1.344       .  A
N2815      C2823   1.348       .  A
N2816      C2820   1.340       .  A
N2816      H2847   1.046       .  S
N2817      C3874   1.348       .  A
N2817      C2825   1.342       .  A
C2818      C2826   1.387       .  A
C2818      C2834   1.417       .  A
C2819      C2835   1.405       .  A
C2819      C2827   1.385       .  A
C2820      C2828   1.379       .  A
C2820      C2837   1.399       .  A
C2821      C2836   1.402   1_554  A
C2821      C2829   1.389       .  A
C2822      N3865   1.344   1_545  A
C2822      C2834   1.412       .  A
C2822      C2830   1.383       .  A
C2823      C2837   1.424       .  A
C2823      C2831   1.388       .  A
C2824      N3867   1.348       .  A
C2824      C2832   1.385   1_554  A
C2824      C2835   1.412   1_565  A
C2825      C2833   1.391   1_554  A
C2825      C2836   1.415   1_554  A
C2826      H2838   1.081       .  S
C2827      H2839   1.076   1_554  S
C2828      H2840   1.082       .  S
C2829      H2841   1.078   1_554  S
C2830      H2842   1.082       .  S
C2830      C3881   1.391   1_545  A
C2831      H2843   1.076       .  S
C2831      C3880   1.391       .  A
C2832      H2844   1.082       .  S
C2832      C3883   1.379       .  A
C2833      H2845   1.082       .  S
C2833      C3882   1.381       .  A
C2834      C3056   1.487       .  S
C2835      C3040   1.486   1_554  S
C2836      C3024   1.481       .  S
C2837      C3072   1.529       .  S
C2848      N2849   1.381       .  A
C2848      N2853   1.361       .  A
N2849      C2850   1.381       .  A
C2850      N2851   1.354       .  A
C2850      C2906   1.494       .  S
N2851      C2852   1.342       .  A
C2852      N2853   1.342       .  A
C2852      C3011   1.492       .  S
C2854      N2855   1.370       .  A
C2854      N2859   1.344       .  A
C2854      C2921   1.464       .  S
N2855      C2856   1.370       .  A
C2856      N2857   1.358       .  A
N2857      C2858   1.354       .  A
C2858      N2859   1.337       .  A
C2858      C2992   1.453       .  S
C2860      N2861   1.390       .  A
C2860      N2865   1.363       .  A
N2861      C2862   1.389       .  A
C2862      N2863   1.347       .  A
C2862      C2926   1.499       .  S
N2863      C2864   1.338       .  A
C2864      N2865   1.355       .  A
C2864      C2976   1.464       .  S
C2866      N2867   1.363       .  A
C2866      N2871   1.391       .  A
C2866      C2914   1.518       .  S
N2867      C2868   1.349       .  A
C2868      N2869   1.330       .  A
C2868      C2960   1.460       .  S
N2869      C2870   1.347       .  A
C2870      N2871   1.391       .  A
N2872      C3927   1.350       .  A
N2872      C2876   1.351       .  A
N2872      H2904   1.039       .  S
N2873      C2881   1.346       .  A
N2874      C3929   1.339       .  A
N2874      C2878   1.342       .  A
N2874      H2905   1.042       .  S
N2875      C2883   1.352       .  A
C2876      C2884   1.384       .  A
C2876      C2892   1.405       .  A
C2877      N3922   1.353   1_545  A
C2877      C2893   1.413       .  A
C2877      C2885   1.384   1_545  A
C2878      C2886   1.376       .  A
C2878      C2895   1.401       .  A
C2879      N3924   1.337   1_545  A
C2879      C2894   1.390       .  A
C2879      C2887   1.385       .  A
C2880      C2892   1.399       .  A
C2880      C2888   1.381       .  A
C2881      C2895   1.405       .  A
C2881      C2889   1.390       .  A
C2882      C2890   1.393       .  A
C2882      C2893   1.414       .  A
C2883      C2891   1.379       .  A
C2883      C2894   1.401       .  A
C2884      H2896   1.078       .  S
C2884      C3935   1.369       .  A
C2885      H2897   1.083       .  S
C2885      C3934   1.374       .  A
C2886      H2898   1.075       .  S
C2886      C3937   1.389       .  A
C2887      H2899   1.082       .  S
C2887      C3936   1.387   1_545  A
C2888      H2900   1.083       .  S
C2889      H2901   1.082       .  S
C2890      H2902   1.079       .  S
C2891      H2903   1.082       .  S
C2892      C2963   1.483       .  S
C2893      C2995   1.485       .  S
C2894      C2979   1.493       .  S
C2895      C3008   1.529       .  S
C2906      N2924   1.351       .  A
C2906      C2943   1.476       .  S
N2907      N2924   1.318       .  A
N2907      N2929   1.316       .  A
N2907     Co3994   2.102       .  S
C2908      N2933   1.371       .  A
C2908      C2946   1.490       .  S
C2908      H2953   1.079       .  S
H2909      C2950   1.081       .  S
C2910      N2934   1.335       .  A
C2910      C2914   1.462       .  S
C2910      H2939   1.082       .  S
Co2911     N3979   2.103   1_545  S
Co2911     N3969   2.091   1_545  S
Co2911     N2951   2.135       .  S
Co2911     N2927   2.064       .  S
Co2911    Cl2955   2.439       .  S
N2912      C2950   1.366       .  A
N2912      N2919   1.323       .  A
N2912     Co3963   2.135       .  S
Co2913     N3962   2.132   1_545  S
Co2913     N3966   2.149   1_545  S
Co2913     N2933   2.127       .  S
Co2913     N2920   2.084       .  S
Co2913    Cl2955   2.515       .  S
C2914      N2952   1.372       .  A
N2915      N2922   1.319       .  A
N2915      N2945   1.340       .  A
N2915     Co2948   2.118       .  S
N2916      N2934   1.325       .  A
N2916      N2952   1.347       .  A
N2916     Co3963   2.160       .  S
N2917      C2946   1.341       .  A
N2917      N2927   1.301       .  A
H2918      C2943   1.079       .  S
N2919      N2940   1.315       .  A
N2919     Co3961   2.093       .  S
N2920      N2938   1.320       .  A
N2920      N2925   1.327       .  A
C2921      N2925   1.352       .  A
C2921      C2949   1.479       .  S
N2922      C2937   1.329       .  A
N2922     Co3994   2.089       .  S
C2923      N2951   1.358       .  A
C2923      C2926   1.481       .  S
C2923      H2957   1.074       .  S
C2926      N2947   1.361       .  A
N2927      N2933   1.317       .  A
N2928      C2954   1.345       .  A
N2928      N2930   1.316       .  A
N2928     Co2944   2.096       .  S
N2929      C2943   1.361       .  A
N2929     Co3961   2.100       .  S
N2930      N2958   1.335       .  A
N2930     Co3998   2.125       .  S
H2931      C2954   1.081       .  S
H2932      C2949   1.082       .  S
N2934     Co2948   2.108       .  S
N2935      N2947   1.325       .  A
N2935      N2951   1.314       .  A
N2935     Co2944   2.100       .  S
C2936      N2940   1.349       .  A
C2936      C2950   1.484       .  S
C2937      C2956   1.456       .  S
C2937      H2941   1.077       .  S
N2938      C2949   1.339       .  A
N2938     Co3998   2.112       .  S
C2942      N2958   1.363       .  A
C2942      C2954   1.467       .  S
Co2944     N3957   2.105   1_545  S
Co2944     N3972   2.084   1_545  S
Co2944    Cl2955   2.438       .  S
N2945      C2956   1.363       .  A
Co2948     N3980   2.120       .  S
Co2948     N3988   2.101       .  S
Co2948    Cl4005   2.443       .  S
Cl2955    Co3998   2.446       .  S
C2959      H2966   1.085       .  S
C2959      C2960   1.400       .  A
C2959      C2964   1.400       .  A
C2960      C2961   1.408       .  A
C2961      C2962   1.401       .  A
C2961      C2968   1.517       .  S
C2962      H2967   1.082       .  S
C2962      C2963   1.412       .  A
C2963      C2964   1.414       .  A
C2964      C2965   1.515       .  S
C2965      F2969   1.383       .  S
C2965      F2970   1.383       .  S
C2965      F2971   1.383       .  S
C2968      F2972   1.379       .  S
C2968      F2973   1.383       .  S
C2968      F2974   1.382   1_655  S
C2975      H2982   1.084       .  S
C2975      C2976   1.392       .  A
C2975      C2980   1.402       .  A
C2976      C2977   1.416       .  A
C2977      C2978   1.408       .  A
C2977      C2984   1.517       .  S
C2978      H2983   1.081       .  S
C2978      C2979   1.399       .  A
C2979      C2980   1.425       .  A
C2980      C2981   1.517       .  S
C2981      F2985   1.372       .  S
C2981      F2986   1.383   1_545  S
C2981      F2987   1.376   1_545  S
C2984      F2988   1.383       .  S
C2984      F2989   1.381       .  S
C2984      F2990   1.375       .  S
C2991      H2998   1.086       .  S
C2991      C2992   1.402       .  A
C2991      C2996   1.393       .  A
C2992      C2993   1.408       .  A
C2993      C2994   1.409       .  A
C2993      C3000   1.518       .  S
C2994      H2999   1.083   1_545  S
C2994      C2995   1.412       .  A
C2995      C2996   1.403       .  A
C2996      C2997   1.502       .  S
C2997      F3001   1.383       .  S
C2997      F3002   1.375       .  S
C2997      F3003   1.382       .  S
C3000      F3004   1.382       .  S
C3000      F3005   1.382   1_545  S
C3000      F3006   1.379       .  S
C3007      H3014   1.076       .  S
C3007      C3008   1.418       .  A
C3007      C3012   1.398       .  A
C3008      C3009   1.422       .  A
C3009      C3010   1.412       .  A
C3009      C3016   1.518       .  S
C3010      H3015   1.084       .  S
C3010      C3011   1.412       .  A
C3011      C3012   1.417       .  A
C3012      C3013   1.526       .  S
C3013      F3017   1.383       .  S
C3013      F3018   1.384       .  S
C3013      F3019   1.376       .  S
C3016      F3020   1.382       .  S
C3016      F3021   1.381       .  S
C3016      F3022   1.384       .  S
C3023      H3030   1.076       .  S
C3023      C3024   1.407       .  A
C3023      C3028   1.402       .  A
C3024      C3025   1.405       .  A
C3025      C3026   1.397       .  A
C3025      C3032   1.512       .  S
C3026      H3031   1.084       .  S
C3026      C3027   1.409       .  A
C3027      C3028   1.411       .  A
C3028      C3029   1.516       .  S
C3029      F3033   1.381       .  S
C3029      F3034   1.374       .  S
C3029      F3035   1.383       .  S
C3032      F3036   1.381       .  S
C3032      F3037   1.383       .  S
C3032      F3038   1.383       .  S
C3039      H3046   1.077       .  S
C3039      C3040   1.399       .  A
C3039      C3044   1.397       .  A
C3040      C3041   1.416       .  A
C3041      C3042   1.414       .  A
C3041      C3048   1.519   1_556  S
C3042      H3047   1.083       .  S
C3042      C3043   1.407       .  A
C3043      C3044   1.414       .  A
C3044      C3045   1.520       .  S
C3045      F3049   1.383       .  S
C3045      F3050   1.382       .  S
C3045      F3051   1.383       .  S
C3048      F3052   1.381       .  S
C3048      F3053   1.384       .  S
C3048      F3054   1.384       .  S
C3055      H3062   1.081       .  S
C3055      C3056   1.414       .  A
C3055      C3060   1.420       .  A
C3056      C3057   1.408       .  A
C3057      C3058   1.396       .  A
C3057      C3064   1.525       .  S
C3058      H3063   1.070       .  S
C3058      C3059   1.408       .  A
C3059      C3060   1.406       .  A
C3060      C3061   1.509       .  S
C3061      F3065   1.382       .  S
C3061      F3066   1.382       .  S
C3061      F3067   1.384       .  S
C3064      F3068   1.383   1_545  S
C3064      F3069   1.381       .  S
C3064      F3070   1.384       .  S
C3071      H3078   1.083       .  S
C3071      C3072   1.415       .  A
C3071      C3076   1.417       .  A
C3072      C3073   1.402       .  A
C3073      C3074   1.407       .  A
C3073      C3080   1.503       .  S
C3074      H3079   1.082       .  S
C3074      C3075   1.414       .  A
C3075      C3076   1.428       .  A
C3076      C3077   1.508       .  S
C3077      F3081   1.384       .  S
C3077      F3082   1.383       .  S
C3077      F3083   1.380       .  S
C3080      F3084   1.383       .  S
C3080      F3085   1.380       .  S
C3080      F3086   1.376       .  S
C3087      H3094   1.079       .  S
C3087      C3088   1.402       .  A
C3087      C3092   1.418       .  A
C3088      C3089   1.407       .  A
C3089      C3090   1.394       .  A
C3089      C3096   1.515       .  S
C3090      H3095   1.084       .  S
C3090      C3091   1.405       .  A
C3091      C3092   1.430       .  A
C3092      C3093   1.515       .  S
C3093      F3097   1.382       .  S
C3093      F3098   1.384       .  S
C3093      F3099   1.384       .  S
C3096      F3100   1.385   1_556  S
C3096      F3101   1.373   1_556  S
C3096      F3102   1.384       .  S
C3103      H3110   1.083       .  S
C3103      C3104   1.411       .  A
C3103      C3108   1.410       .  A
C3104      C3105   1.410       .  A
C3105      C3106   1.396       .  A
C3105      C3112   1.505       .  S
C3106      H3111   1.084       .  S
C3106      C3107   1.396       .  A
C3107      C3108   1.413       .  A
C3108      C3109   1.514       .  S
C3109      F3113   1.385       .  S
C3109      F3114   1.382       .  S
C3109      F3115   1.383       .  S
C3112      F3116   1.380       .  S
C3112      F3117   1.380       .  S
C3112      F3118   1.377       .  S
C3119      H3126   1.087       .  S
C3119      C3120   1.393       .  A
C3119      C3124   1.386       .  A
C3120      C3121   1.409       .  A
C3121      C3122   1.414       .  A
C3121      C3128   1.509       .  S
C3122      H3127   1.084       .  S
C3122      C3123   1.410       .  A
C3123      C3124   1.427       .  A
C3124      C3125   1.522       .  S
C3125      F3129   1.374       .  S
C3125      F3130   1.380       .  S
C3125      F3131   1.370       .  S
C3128      F3132   1.377       .  S
C3128      F3133   1.383       .  S
C3128      F3134   1.381       .  S
C3135      H3142   1.084       .  S
C3135      C3136   1.401       .  A
C3135      C3140   1.396       .  A
C3136      C3137   1.421       .  A
C3137      C3138   1.410       .  A
C3137      C3144   1.526       .  S
C3138      H3143   1.074       .  S
C3138      C3139   1.418       .  A
C3139      C3140   1.434       .  A
C3140      C3141   1.519       .  S
C3141      F3145   1.382       .  S
C3141      F3146   1.382       .  S
C3141      F3147   1.361       .  S
C3144      F3148   1.384       .  S
C3144      F3149   1.380       .  S
C3144      F3150   1.385       .  S
C3151      N3169   1.352       .  A
C3151      C3188   1.481       .  S
C3151      C3321   1.503       .  S
N3152      N3169   1.325       .  A
N3152      N3174   1.319       .  A
N3152     Co3714   2.103   1_554  S
C3153      N3178   1.352       .  A
C3153      C3191   1.477       .  S
C3153      H3198   1.078       .  S
H3154      C3195   1.081       .  S
C3155      N3179   1.327       .  A
C3155      C3159   1.447       .  S
C3155      H3184   1.074       .  S
Co3156     N3699   2.129       .  S
Co3156     N3689   2.126       .  S
Co3156     N3196   2.121       .  S
Co3156     N3172   2.089       .  S
Co3156    Cl3725   2.400       .  S
N3157      C3195   1.369       .  A
N3157      N3164   1.324       .  A
N3157     Co3158   2.139   1_554  S
Co3158     N3161   2.130   1_556  S
Co3158     N3703   2.095       .  S
Co3158     N3690   2.138       .  S
Co3158    Cl3200   2.544       .  S
C3159      N3197   1.369       .  A
C3159      C3315   1.502       .  S
N3160      N3167   1.320       .  A
N3160      N3190   1.329       .  A
N3160     Co3193   2.084   1_554  S
N3161      N3179   1.321       .  A
N3161      N3197   1.344       .  A
N3162      C3191   1.354       .  A
N3162      N3172   1.311       .  A
H3163      C3188   1.082       .  S
N3164      N3185   1.315       .  A
N3164     Co3681   2.099   1_554  S
N3165      N3183   1.316       .  A
N3165      N3170   1.336       .  A
N3165     Co3683   2.124       .  S
C3166      N3170   1.366       .  A
C3166      C3194   1.472       .  S
C3166      C3335   1.486       .  S
N3167      C3182   1.334       .  A
N3167     Co3714   2.090   1_554  S
C3168      N3196   1.348       .  A
C3168      C3171   1.476       .  S
C3168      H3202   1.075       .  S
C3171      N3192   1.364       .  A
C3171      C3327   1.498       .  S
N3172      N3178   1.316       .  A
N3173      C3199   1.340       .  A
N3173      N3175   1.316       .  A
N3173     Co3189   2.094       .  S
N3174      C3188   1.360       .  A
N3174     Co3681   2.128   1_554  S
N3175      N3203   1.330       .  A
N3175     Co3718   2.092       .  S
H3176      C3199   1.082       .  S
H3177      C3194   1.081       .  S
N3178     Co3683   2.096       .  S
N3179     Co3193   2.090   1_554  S
N3180      N3192   1.332       .  A
N3180      N3196   1.314       .  A
N3180     Co3189   2.106       .  S
C3181      N3185   1.346       .  A
C3181      C3195   1.488       .  S
C3181      C3210   1.503       .  S
C3182      C3201   1.462       .  S
C3182      H3186   1.082       .  S
N3183      C3194   1.332       .  A
N3183     Co3718   2.089       .  S
C3187      N3203   1.355       .  A
C3187      C3199   1.470       .  S
C3187      C3218   1.479       .  S
Co3189     N3677   2.116       .  S
Co3189     N3692   2.098       .  S
Co3189    Cl3725   2.478       .  S
N3190      C3201   1.350       .  A
C3191      C3226   1.475       .  S
Co3193     N3700   2.093       .  S
Co3193     N3708   2.082       .  S
Co3193    Cl3200   2.407       .  S
Cl3200    Co3681   2.398       .  S
Cl3200    Co3714   2.471       .  S
C3201      C3204   1.464       .  S
C3204      N3205   1.368       .  A
C3204      N3209   1.350       .  A
N3205      C3206   1.367       .  A
C3206      N3207   1.359       .  A
C3206      C3292   1.472       .  S
N3207      C3208   1.345       .  A
C3208      N3209   1.348       .  A
C3208      C3661   1.493       .  S
C3210      N3211   1.357       .  A
C3210      N3215   1.387       .  A
N3211      C3212   1.342       .  A
C3212      N3213   1.338       .  A
C3212      C3645   1.459       .  S
N3213      C3214   1.352       .  A
C3214      N3215   1.389       .  A
C3214      C3302   1.494       .  S
C3216      N3217   1.371       .  A
C3216      N3221   1.355       .  A
C3216      C3312   1.473       .  S
N3217      C3218   1.370       .  A
C3218      N3219   1.356       .  A
N3219      C3220   1.353       .  A
C3220      N3221   1.351       .  A
C3220      C3632   1.470       .  S
C3222      N3223   1.361       .  A
C3222      N3227   1.373       .  A
C3222      C3298   1.479       .  S
N3223      C3224   1.354       .  A
C3224      N3225   1.340       .  A
C3224      C3616   1.476       .  S
N3225      C3226   1.346       .  A
C3226      N3227   1.369       .  A
N3228      C3232   1.351       .  A
N3228      H3260   1.035       .  S
N3229      C3761   1.353   1_554  A
N3229      C3237   1.346       .  A
N3230      C3234   1.342       .  A
N3230      H3261   1.038       .  S
N3231      C3763   1.332       .  A
N3231      C3239   1.340   1_556  A
C3232      C3240   1.395       .  A
C3232      C3248   1.441       .  A
C3233      C3249   1.400       .  A
C3233      C3241   1.372       .  A
C3234      C3242   1.390       .  A
C3234      C3251   1.416       .  A
C3235      C3250   1.426       .  A
C3235      C3243   1.385       .  A
C3236      N3754   1.349       .  A
C3236      C3248   1.422       .  A
C3236      C3244   1.386       .  A
C3237      C3251   1.416       .  A
C3237      C3245   1.387       .  A
C3238      N3756   1.333       .  A
C3238      C3246   1.386       .  A
C3238      C3249   1.392       .  A
C3239      C3247   1.385   1_554  A
C3239      C3250   1.396       .  A
C3240      H3252   1.054       .  S
C3241      H3253   1.082       .  S
C3242      H3254   1.082       .  S
C3243      H3255   1.083       .  S
C3244      H3256   1.083       .  S
C3244      C3770   1.385       .  A
C3245      H3257   1.083       .  S
C3245      C3769   1.383       .  A
C3246      H3258   1.071       .  S
C3246      C3772   1.370       .  A
C3247      H3259   1.082   1_556  S
C3247      C3771   1.373       .  A
C3248      C3613   1.506       .  S
C3249      C3629   1.496       .  S
C3250      C3664   1.522       .  S
C3251      C3648   1.487       .  S
C3262      N3280   1.356       .  A
C3262      C3299   1.487       .  S
C3262      C3385   1.514       .  S
N3263      N3280   1.326       .  A
N3263      N3285   1.318       .  A
C3264      N3289   1.360       .  A
C3264      C3302   1.471       .  S
C3264      H3309   1.081       .  S
H3265      C3306   1.082       .  S
C3266      N3290   1.318       .  A
C3266      C3270   1.442       .  S
C3266      H3295   1.081       .  S
Co3267     N3307   2.118   1_455  S
Co3267     N3283   2.129   1_455  S
Co3267    Cl3311   2.425       .  S
N3268      C3306   1.354       .  A
N3268      N3275   1.322       .  A
Co3269     N3289   2.108   1_455  S
Co3269     N3276   2.106   1_455  S
Co3269    Cl3311   2.533       .  S
C3270      N3308   1.374       .  A
C3270      C3373   1.500       .  S
N3271      N3278   1.316       .  A
N3271      N3301   1.331       .  A
N3272      N3290   1.320       .  A
N3272      N3308   1.347       .  A
N3273      C3302   1.356       .  A
N3273      N3283   1.319       .  A
H3274      C3299   1.082       .  S
N3275      N3296   1.314       .  A
N3276      N3294   1.317       .  A
N3276      N3281   1.337       .  A
C3277      N3281   1.363       .  A
C3277      C3305   1.488       .  S
C3277      C3395   1.500       .  S
N3278      C3293   1.338       .  A
C3279      N3307   1.354       .  A
C3279      C3282   1.475       .  S
C3279      H3313   1.082       .  S
C3282      N3303   1.348       .  A
C3282      C3381   1.483       .  S
N3283      N3289   1.324       .  A
N3284      C3310   1.342       .  A
N3284      N3286   1.318       .  A
N3284     Co3300   2.104   1_655  S
N3285      C3299   1.365       .  A
N3286      N3314   1.328       .  A
N3286     Co3304   2.076   1_655  S
H3287      C3310   1.082       .  S
H3288      C3305   1.083       .  S
N3291      N3303   1.322       .  A
N3291      N3307   1.320       .  A
N3291     Co3300   2.080   1_655  S
C3292      N3296   1.345       .  A
C3292      C3306   1.480       .  S
C3293      C3312   1.464       .  S
C3293      H3297   1.082       .  S
N3294      C3305   1.337       .  A
N3294     Co3304   2.125   1_655  S
C3298      N3314   1.351       .  A
C3298      C3310   1.466       .  S
Co3300    Cl3311   2.458       .  S
N3301      C3312   1.357       .  A
Co3304    Cl3311   2.414       .  S
C3315      N3316   1.374       .  A
C3315      N3320   1.386       .  A
N3316      C3317   1.353       .  A
C3317      N3318   1.341       .  A
C3317      C3600   1.511       .  S
N3318      C3319   1.350       .  A
C3319      N3320   1.380       .  A
C3319      C3461   1.497       .  S
C3321      N3322   1.387       .  A
C3321      N3326   1.373       .  A
N3322      C3323   1.378       .  A
C3323      N3324   1.353       .  A
C3323      C3471   1.508       .  S
N3324      C3325   1.339       .  A
C3325      N3326   1.358       .  A
C3325      C3584   1.497       .  S
C3327      N3328   1.383       .  A
C3327      N3332   1.350       .  A
N3328      C3329   1.384       .  A
C3329      N3330   1.358       .  A
C3329      C3467   1.506       .  S
N3330      C3331   1.357       .  A
C3331      N3332   1.349       .  A
C3331      C3568   1.468       .  S
C3333      N3334   1.380       .  A
C3333      N3338   1.357       .  A
C3333      C3481   1.485       .  S
N3334      C3335   1.380       .  A
C3335      N3336   1.350       .  A
N3336      C3337   1.339       .  A
C3337      N3338   1.341       .  A
C3337      C3552   1.471       .  S
N3339      C3869   1.340       .  A
N3339      C3343   1.357       .  A
N3339      H3371   1.041       .  S
N3340      C3348   1.346       .  A
N3341      C3871   1.341       .  A
N3341      C3345   1.343       .  A
N3341      H3372   1.044       .  S
N3342      C3350   1.341       .  A
C3343      C3351   1.385       .  A
C3343      C3359   1.415       .  A
C3344      N3864   1.338       .  A
C3344      C3360   1.402       .  A
C3344      C3352   1.383       .  A
C3345      C3353   1.379       .  A
C3345      C3362   1.400       .  A
C3346      N3866   1.342       .  A
C3346      C3361   1.404       .  A
C3346      C3354   1.388       .  A
C3347      C3359   1.412       .  A
C3347      C3355   1.383       .  A
C3348      C3362   1.423       .  A
C3348      C3356   1.387       .  A
C3349      C3357   1.384       .  A
C3349      C3360   1.412       .  A
C3350      C3358   1.391       .  A
C3350      C3361   1.413       .  A
C3351      H3363   1.082       .  S
C3351      C3877   1.374       .  A
C3352      H3364   1.074       .  S
C3352      C3876   1.377       .  A
C3353      H3365   1.082       .  S
C3353      C3879   1.386       .  A
C3354      H3366   1.078       .  S
C3354      C3878   1.388       .  A
C3355      H3367   1.082       .  S
C3356      H3368   1.078       .  S
C3357      H3369   1.082       .  S
C3358      H3370   1.082       .  S
C3359      C3581   1.484       .  S
C3360      C3565   1.479       .  S
C3361      C3549   1.485       .  S
C3362      C3597   1.522       .  S
C3373      N3374   1.379       .  A
C3373      N3378   1.362       .  A
N3374      C3375   1.380       .  A
C3375      N3376   1.355       .  A
C3375      C3431   1.499       .  S
N3376      C3377   1.344       .  A
C3377      N3378   1.344       .  A
C3377      C3536   1.499       .  S
C3379      N3380   1.371       .  A
C3379      N3384   1.347       .  A
C3379      C3446   1.468       .  S
N3380      C3381   1.371       .  A
C3381      N3382   1.363       .  A
N3382      C3383   1.357       .  A
C3383      N3384   1.336       .  A
C3383      C3517   1.465       .  S
C3385      N3386   1.391       .  A
C3385      N3390   1.362       .  A
N3386      C3387   1.390       .  A
C3387      N3388   1.348       .  A
C3387      C3451   1.498       .  S
N3388      C3389   1.336       .  A
C3389      N3390   1.350       .  A
C3389      C3501   1.461       .  S
C3391      N3392   1.366       .  A
C3391      N3396   1.393       .  A
C3391      C3439   1.518       .  S
N3392      C3393   1.349       .  A
C3393      N3394   1.326       .  A
C3393      C3485   1.458       .  S
N3394      C3395   1.343       .  A
C3395      N3396   1.391       .  A
N3397      C3401   1.351       .  A
N3397      H3429   1.040       .  S
N3398      C3406   1.347       .  A
N3399      C3403   1.342       .  A
N3399      H3430   1.041       .  S
N3400      C3408   1.351       .  A
C3401      C3409   1.384       .  A
C3401      C3417   1.407       .  A
C3402      C3418   1.404       .  A
C3402      C3410   1.384       .  A
C3403      C3411   1.376       .  A
C3403      C3420   1.401       .  A
C3404      C3419   1.391       .  A
C3404      C3412   1.384       .  A
C3405      C3417   1.399       .  A
C3405      C3413   1.382       .  A
C3406      C3420   1.406       .  A
C3406      C3414   1.391       .  A
C3407      C3415   1.389       .  A
C3407      C3418   1.413       .  A
C3408      C3416   1.378       .  A
C3408      C3419   1.402       .  A
C3409      H3421   1.077       .  S
C3410      H3422   1.083       .  S
C3411      H3423   1.075       .  S
C3412      H3424   1.082       .  S
C3413      H3425   1.082       .  S
C3414      H3426   1.082       .  S
C3415      H3427   1.079       .  S
C3416      H3428   1.082       .  S
C3417      C3488   1.486       .  S
C3418      C3520   1.486       .  S
C3419      C3504   1.491       .  S
C3420      C3533   1.527       .  S
C3431      N3449   1.349       .  A
C3431      C3468   1.480       .  S
N3432      N3449   1.319       .  A
N3432      N3454   1.315       .  A
C3433      N3458   1.376       .  A
C3433      C3471   1.496       .  S
C3433      H3478   1.079       .  S
H3434      C3475   1.081       .  S
C3435      N3459   1.335       .  A
C3435      C3439   1.461       .  S
C3435      H3464   1.082       .  S
Co3436     N3476   2.130       .  S
Co3436     N3452   2.062       .  S
Co3436    Cl3480   2.442       .  S
N3437      C3475   1.368       .  A
N3437      N3444   1.324       .  A
Co3438     N3458   2.152       .  S
Co3438     N3445   2.096       .  S
Co3438    Cl3480   2.512       .  S
C3439      N3477   1.372       .  A
N3440      N3447   1.317       .  A
N3440      N3470   1.338       .  A
N3440     Co3473   2.101   1_565  S
N3441      N3459   1.325       .  A
N3441      N3477   1.347       .  A
N3442      C3471   1.340       .  A
N3442      N3452   1.302       .  A
H3443      C3468   1.076       .  S
N3444      N3465   1.313       .  A
N3445      N3463   1.320       .  A
N3445      N3450   1.329       .  A
C3446      N3450   1.357       .  A
C3446      C3474   1.471       .  S
N3447      C3462   1.329       .  A
C3448      N3476   1.359       .  A
C3448      C3451   1.483       .  S
C3448      H3482   1.077       .  S
C3451      N3472   1.360       .  A
N3452      N3458   1.319       .  A
N3453      C3479   1.346       .  A
N3453      N3455   1.314       .  A
N3453     Co3469   2.098       .  S
N3454      C3468   1.361       .  A
N3455      N3483   1.337       .  A
H3456      C3479   1.081       .  S
H3457      C3474   1.082       .  S
N3459     Co3473   2.116   1_565  S
N3460      N3472   1.323       .  A
N3460      N3476   1.313       .  A
N3460     Co3469   2.095       .  S
C3461      N3465   1.347       .  A
C3461      C3475   1.485       .  S
C3462      C3481   1.457       .  S
C3462      H3466   1.073       .  S
N3463      C3474   1.331       .  A
C3467      N3483   1.368       .  A
C3467      C3479   1.471       .  S
Co3469    Cl3480   2.446       .  S
N3470      C3481   1.360       .  A
C3484      H3491   1.085       .  S
C3484      C3485   1.402       .  A
C3484      C3489   1.400       .  A
C3485      C3486   1.406       .  A
C3486      C3487   1.402       .  A
C3486      C3493   1.512       .  S
C3487      H3492   1.082       .  S
C3487      C3488   1.411       .  A
C3488      C3489   1.410       .  A
C3489      C3490   1.511       .  S
C3490      F3494   1.384       .  S
C3490      F3495   1.382       .  S
C3490      F3496   1.381       .  S
C3493      F3497   1.381       .  S
C3493      F3498   1.383       .  S
C3493      F3499   1.380   1_655  S
C3500      H3507   1.084       .  S
C3500      C3501   1.390       .  A
C3500      C3505   1.398       .  A
C3501      C3502   1.414       .  A
C3502      C3503   1.410       .  A
C3502      C3509   1.514       .  S
C3503      H3508   1.082       .  S
C3503      C3504   1.400       .  A
C3504      C3505   1.424       .  A
C3505      C3506   1.516       .  S
C3506      F3510   1.372       .  S
C3506      F3511   1.384       .  S
C3506      F3512   1.375       .  S
C3509      F3513   1.383       .  S
C3509      F3514   1.382       .  S
C3509      F3515   1.376       .  S
C3516      H3523   1.085       .  S
C3516      C3517   1.398       .  A
C3516      C3521   1.399       .  A
C3517      C3518   1.410       .  A
C3518      C3519   1.410       .  A
C3518      C3525   1.512       .  S
C3519      H3524   1.084       .  S
C3519      C3520   1.407       .  A
C3520      C3521   1.401       .  A
C3521      C3522   1.494       .  S
C3522      F3526   1.382       .  S
C3522      F3527   1.370       .  S
C3522      F3528   1.383       .  S
C3525      F3529   1.383       .  S
C3525      F3530   1.383       .  S
C3525      F3531   1.377       .  S
C3532      H3539   1.075       .  S
C3532      C3533   1.414       .  A
C3532      C3537   1.399       .  A
C3533      C3534   1.418       .  A
C3534      C3535   1.413       .  A
C3534      C3541   1.516       .  S
C3535      H3540   1.084       .  S
C3535      C3536   1.414       .  A
C3536      C3537   1.421       .  A
C3537      C3538   1.522       .  S
C3538      F3542   1.384       .  S
C3538      F3543   1.383       .  S
C3538      F3544   1.375       .  S
C3541      F3545   1.382       .  S
C3541      F3546   1.383       .  S
C3541      F3547   1.385       .  S
C3548      H3555   1.078       .  S
C3548      C3549   1.409       .  A
C3548      C3553   1.404       .  A
C3549      C3550   1.406       .  A
C3550      C3551   1.396       .  A
C3550      C3557   1.510       .  S
C3551      H3556   1.083       .  S
C3551      C3552   1.407       .  A
C3552      C3553   1.408       .  A
C3553      C3554   1.513       .  S
C3554      F3558   1.378   1_565  S
C3554      F3559   1.376       .  S
C3554      F3560   1.382       .  S
C3557      F3561   1.380       .  S
C3557      F3562   1.382       .  S
C3557      F3563   1.383       .  S
C3564      H3571   1.077       .  S
C3564      C3565   1.398       .  A
C3564      C3569   1.397       .  A
C3565      C3566   1.413       .  A
C3566      C3567   1.409       .  A
C3566      C3573   1.516       .  S
C3567      H3572   1.083       .  S
C3567      C3568   1.405       .  A
C3568      C3569   1.415       .  A
C3569      C3570   1.520       .  S
C3570      F3574   1.383       .  S
C3570      F3575   1.382       .  S
C3570      F3576   1.382       .  S
C3573      F3577   1.382       .  S
C3573      F3578   1.385       .  S
C3573      F3579   1.383       .  S
C3580      H3587   1.080       .  S
C3580      C3581   1.411       .  A
C3580      C3585   1.420       .  A
C3581      C3582   1.405       .  A
C3582      C3583   1.393       .  A
C3582      C3589   1.522       .  S
C3583      H3588   1.070       .  S
C3583      C3584   1.410       .  A
C3584      C3585   1.410       .  A
C3585      C3586   1.510       .  S
C3586      F3590   1.383       .  S
C3586      F3591   1.381       .  S
C3586      F3592   1.383       .  S
C3589      F3593   1.383       .  S
C3589      F3594   1.379       .  S
C3589      F3595   1.385       .  S
C3596      H3603   1.083       .  S
C3596      C3597   1.416       .  A
C3596      C3601   1.421       .  A
C3597      C3598   1.400       .  A
C3598      C3599   1.400       .  A
C3598      C3605   1.502       .  S
C3599      H3604   1.079       .  S
C3599      C3600   1.412       .  A
C3600      C3601   1.426       .  A
C3601      C3602   1.509       .  S
C3602      F3606   1.385       .  S
C3602      F3607   1.383       .  S
C3602      F3608   1.378       .  S
C3605      F3609   1.382       .  S
C3605      F3610   1.373       .  S
C3605      F3611   1.369       .  S
C3612      H3619   1.077       .  S
C3612      C3613   1.403       .  A
C3612      C3617   1.421       .  A
C3613      C3614   1.404       .  A
C3614      C3615   1.395       .  A
C3614      C3621   1.511       .  S
C3615      H3620   1.083       .  S
C3615      C3616   1.405       .  A
C3616      C3617   1.431       .  A
C3617      C3618   1.519       .  S
C3618      F3622   1.382       .  S
C3618      F3623   1.382       .  S
C3618      F3624   1.383       .  S
C3621      F3625   1.370       .  S
C3621      F3626   1.382       .  S
C3621      F3627   1.383       .  S
C3628      H3635   1.084       .  S
C3628      C3629   1.411       .  A
C3628      C3633   1.409       .  A
C3629      C3630   1.412       .  A
C3630      C3631   1.397       .  A
C3630      C3637   1.508       .  S
C3631      H3636   1.084       .  S
C3631      C3632   1.398       .  A
C3632      C3633   1.415       .  A
C3633      C3634   1.515       .  S
C3634      F3638   1.383       .  S
C3634      F3639   1.383       .  S
C3634      F3640   1.383       .  S
C3637      F3641   1.380       .  S
C3637      F3642   1.380       .  S
C3637      F3643   1.379       .  S
C3644      H3651   1.084       .  S
C3644      C3645   1.392       .  A
C3644      C3649   1.391       .  A
C3645      C3646   1.403       .  A
C3646      C3647   1.411       .  A
C3646      C3653   1.509       .  S
C3647      H3652   1.083       .  S
C3647      C3648   1.409       .  A
C3648      C3649   1.435       .  A
C3649      C3650   1.534       .  S
C3650      F3654   1.385       .  S
C3650      F3655   1.367       .  S
C3650      F3656   1.364       .  S
C3653      F3657   1.383       .  S
C3653      F3658   1.383       .  S
C3653      F3659   1.378       .  S
C3660      H3667   1.084       .  S
C3660      C3661   1.403       .  A
C3660      C3665   1.395       .  A
C3661      C3662   1.421       .  A
C3662      C3663   1.409       .  A
C3662      C3669   1.523       .  S
C3663      H3668   1.075       .  S
C3663      C3664   1.417       .  A
C3664      C3665   1.432       .  A
C3665      C3666   1.520       .  S
C3666      F3670   1.382       .  S
C3666      F3671   1.381   1_554  S
C3666      F3672   1.366       .  S
C3669      F3673   1.384       .  S
C3669      F3674   1.382       .  S
C3669      F3675   1.384       .  S
C3676      N3694   1.356       .  A
C3676      C3713   1.479       .  S
C3676      C3846   1.507       .  S
N3677      N3694   1.328       .  A
N3677      N3699   1.321       .  A
C3678      N3703   1.353       .  A
C3678      C3716   1.476       .  S
C3678      H3723   1.081       .  S
H3679      C3720   1.081       .  S
C3680      N3704   1.326       .  A
C3680      C3684   1.450       .  S
C3680      H3709   1.071       .  S
Co3681     N3721   2.109       .  S
Co3681     N3697   2.085       .  S
N3682      C3720   1.366       .  A
N3682      N3689   1.325       .  A
N3682     Co3683   2.122       .  S
Co3683     N3686   2.130       .  S
Co3683    Cl3725   2.551       .  S
C3684      N3722   1.369       .  A
C3684      C3840   1.508       .  S
N3685      N3692   1.322       .  A
N3685      N3715   1.331       .  A
N3685     Co3718   2.088       .  S
N3686      N3704   1.321       .  A
N3686      N3722   1.346       .  A
N3687      C3716   1.351       .  A
N3687      N3697   1.310       .  A
H3688      C3713   1.081       .  S
N3689      N3710   1.319       .  A
N3690      N3708   1.317       .  A
N3690      N3695   1.337       .  A
C3691      N3695   1.368       .  A
C3691      C3719   1.470       .  S
C3691      C3860   1.491       .  S
N3692      C3707   1.334       .  A
C3693      N3721   1.347       .  A
C3693      C3696   1.473       .  S
C3693      H3727   1.077       .  S
C3696      N3717   1.360       .  A
C3696      C3852   1.488       .  S
N3697      N3703   1.318       .  A
N3698      C3724   1.339       .  A
N3698      N3700   1.315       .  A
N3698     Co3714   2.087       .  S
N3699      C3713   1.360       .  A
N3700      N3728   1.329       .  A
H3701      C3724   1.082       .  S
H3702      C3719   1.081       .  S
N3704     Co3718   2.096       .  S
N3705      N3717   1.329       .  A
N3705      N3721   1.313       .  A
N3705     Co3714   2.095       .  S
C3706      N3710   1.353       .  A
C3706      C3720   1.481       .  S
C3706      C3735   1.505       .  S
C3707      C3726   1.462       .  S
C3707      H3711   1.082       .  S
N3708      C3719   1.331       .  A
C3712      N3728   1.356       .  A
C3712      C3724   1.470       .  S
C3712      C3743   1.478       .  S
N3715      C3726   1.351       .  A
C3716      C3751   1.471       .  S
Co3718    Cl3725   2.406       .  S
C3726      C3729   1.469       .  S
C3729      N3730   1.369       .  A
C3729      N3734   1.351       .  A
N3730      C3731   1.369       .  A
C3731      N3732   1.361       .  A
C3731      C3817   1.474       .  S
N3732      C3733   1.345       .  A
C3733      N3734   1.349       .  A
C3733      C4186   1.495       .  S
C3735      N3736   1.354       .  A
C3735      N3740   1.391       .  A
N3736      C3737   1.341       .  A
C3737      N3738   1.340       .  A
C3737      C4170   1.456       .  S
N3738      C3739   1.351       .  A
C3739      N3740   1.391       .  A
C3739      C3827   1.503       .  S
C3741      N3742   1.373       .  A
C3741      N3746   1.351       .  A
C3741      C3837   1.473       .  S
N3742      C3743   1.372       .  A
C3743      N3744   1.356       .  A
N3744      C3745   1.351       .  A
C3745      N3746   1.346       .  A
C3745      C4157   1.468       .  S
C3747      N3748   1.362       .  A
C3747      N3752   1.371       .  A
C3747      C3823   1.473       .  S
N3748      C3749   1.353       .  A
C3749      N3750   1.340       .  A
C3749      C4141   1.480       .  S
N3750      C3751   1.350       .  A
C3751      N3752   1.367       .  A
N3753      C3757   1.351       .  A
N3753      H3785   1.032       .  S
N3754      C3762   1.347       .  A
N3755      C3759   1.341       .  A
N3755      H3786   1.039       .  S
N3756      C3764   1.343       .  A
C3757      C3765   1.398       .  A
C3757      C3773   1.440       .  A
C3758      C3774   1.402       .  A
C3758      C3766   1.368       .  A
C3759      C3767   1.389       .  A
C3759      C3776   1.416       .  A
C3760      C3775   1.429       .  A
C3760      C3768   1.386       .  A
C3761      C3773   1.428       .  A
C3761      C3769   1.385   1_556  A
C3762      C3776   1.415       .  A
C3762      C3770   1.387       .  A
C3763      C3771   1.385       .  A
C3763      C3774   1.387       .  A
C3764      C3772   1.382       .  A
C3764      C3775   1.397       .  A
C3765      H3777   1.071       .  S
C3766      H3778   1.083       .  S
C3767      H3779   1.083       .  S
C3768      H3780   1.083       .  S
C3769      H3781   1.083   1_554  S
C3770      H3782   1.083       .  S
C3771      H3783   1.076       .  S
C3772      H3784   1.083       .  S
C3773      C4138   1.514       .  S
C3774      C4154   1.500       .  S
C3775      C4189   1.521       .  S
C3776      C4173   1.483       .  S
C3787      N3805   1.357       .  A
C3787      C3824   1.484       .  S
C3787      C3910   1.509       .  S
N3788      N3805   1.326       .  A
N3788      N3810   1.315       .  A
C3789      N3814   1.362       .  A
C3789      C3827   1.474       .  S
C3789      H3834   1.081       .  S
H3790      C3831   1.082       .  S
C3791      N3815   1.321       .  A
C3791      C3795   1.446       .  S
C3791      H3820   1.081       .  S
Co3792     N3832   2.110   1_455  S
Co3792     N3808   2.140   1_455  S
Co3792    Cl3836   2.423       .  S
N3793      C3831   1.355       .  A
N3793      N3800   1.322       .  A
Co3794     N3814   2.110   1_455  S
Co3794     N3801   2.103   1_455  S
Co3794    Cl3836   2.531       .  S
C3795      N3833   1.374       .  A
C3795      C3898   1.505       .  S
N3796      N3803   1.316       .  A
N3796      N3826   1.332       .  A
N3797      N3815   1.320       .  A
N3797      N3833   1.347       .  A
N3798      C3827   1.358       .  A
N3798      N3808   1.322       .  A
H3799      C3824   1.082       .  S
N3800      N3821   1.313       .  A
N3801      N3819   1.316       .  A
N3801      N3806   1.336       .  A
C3802      N3806   1.362       .  A
C3802      C3830   1.485       .  S
C3802      C3920   1.496       .  S
N3803      C3818   1.336       .  A
C3804      N3832   1.352       .  A
C3804      C3807   1.473       .  S
C3804      H3838   1.082       .  S
C3807      N3828   1.349       .  A
C3807      C3906   1.476       .  S
N3808      N3814   1.324       .  A
N3809      C3835   1.338       .  A
N3809      N3811   1.318       .  A
N3809     Co3825   2.088   1_655  S
N3810      C3824   1.362       .  A
N3811      N3839   1.329       .  A
N3811     Co3829   2.080   1_655  S
H3812      C3835   1.082       .  S
H3813      C3830   1.083       .  S
N3816      N3828   1.321       .  A
N3816      N3832   1.319       .  A
N3816     Co3825   2.081   1_655  S
C3817      N3821   1.344       .  A
C3817      C3831   1.481       .  S
C3818      C3837   1.463       .  S
C3818      H3822   1.082       .  S
N3819      C3830   1.335       .  A
N3819     Co3829   2.117   1_655  S
C3823      N3839   1.353       .  A
C3823      C3835   1.461       .  S
Co3825    Cl3836   2.456       .  S
N3826      C3837   1.361       .  A
Co3829    Cl3836   2.409       .  S
C3840      N3841   1.371       .  A
C3840      N3845   1.387       .  A
N3841      C3842   1.351       .  A
C3842      N3843   1.340       .  A
C3842      C4125   1.510       .  S
N3843      C3844   1.352       .  A
C3844      N3845   1.383       .  A
C3844      C3986   1.497       .  S
C3846      N3847   1.390       .  A
C3846      N3851   1.373       .  A
N3847      C3848   1.380       .  A
C3848      N3849   1.351       .  A
C3848      C3996   1.513       .  S
N3849      C3850   1.339       .  A
C3850      N3851   1.359       .  A
C3850      C4109   1.497       .  S
C3852      N3853   1.376       .  A
C3852      N3857   1.352       .  A
N3853      C3854   1.377       .  A
C3854      N3855   1.359       .  A
C3854      C3992   1.495       .  S
N3855      C3856   1.357       .  A
C3856      N3857   1.350       .  A
C3856      C4093   1.469       .  S
C3858      N3859   1.381       .  A
C3858      N3863   1.358       .  A
C3858      C4006   1.486       .  S
N3859      C3860   1.381       .  A
C3860      N3861   1.351       .  A
N3861      C3862   1.341       .  A
C3862      N3863   1.340       .  A
C3862      C4077   1.473       .  S
N3864      C3868   1.355       .  A
N3864      H3896   1.039       .  S
N3865      C3873   1.344       .  A
N3866      C3870   1.341       .  A
N3866      H3897   1.045       .  S
N3867      C3875   1.343       .  A
C3868      C3876   1.386       .  A
C3868      C3884   1.415       .  A
C3869      C3885   1.407       .  A
C3869      C3877   1.384       .  A
C3870      C3878   1.380       .  A
C3870      C3887   1.403       .  A
C3871      C3886   1.401   1_554  A
C3871      C3879   1.387       .  A
C3872      C3884   1.412       .  A
C3872      C3880   1.383       .  A
C3873      C3887   1.422       .  A
C3873      C3881   1.388       .  A
C3874      C3882   1.384   1_554  A
C3874      C3885   1.414       .  A
C3875      C3883   1.390   1_554  A
C3875      C3886   1.413   1_554  A
C3876      H3888   1.082       .  S
C3877      H3889   1.075   1_554  S
C3878      H3890   1.082       .  S
C3879      H3891   1.077   1_554  S
C3880      H3892   1.082       .  S
C3881      H3893   1.075       .  S
C3882      H3894   1.082       .  S
C3883      H3895   1.082       .  S
C3884      C4106   1.487       .  S
C3885      C4090   1.489   1_554  S
C3886      C4074   1.484       .  S
C3887      C4122   1.518       .  S
C3898      N3899   1.382       .  A
C3898      N3903   1.360       .  A
N3899      C3900   1.381       .  A
C3900      N3901   1.354       .  A
C3900      C3956   1.498       .  S
N3901      C3902   1.344       .  A
C3902      N3903   1.343       .  A
C3902      C4061   1.493       .  S
C3904      N3905   1.371       .  A
C3904      N3909   1.345       .  A
C3904      C3971   1.466       .  S
N3905      C3906   1.371       .  A
C3906      N3907   1.359       .  A
N3907      C3908   1.351       .  A
C3908      N3909   1.337       .  A
C3908      C4042   1.454       .  S
C3910      N3911   1.390       .  A
C3910      N3915   1.360       .  A
N3911      C3912   1.389       .  A
C3912      N3913   1.348       .  A
C3912      C3976   1.498       .  S
N3913      C3914   1.338       .  A
C3914      N3915   1.349       .  A
C3914      C4026   1.458       .  S
C3916      N3917   1.363       .  A
C3916      N3921   1.390       .  A
C3916      C3964   1.513       .  S
N3917      C3918   1.347       .  A
C3918      N3919   1.327       .  A
C3918      C4010   1.456       .  S
N3919      C3920   1.344       .  A
C3920      N3921   1.390       .  A
N3922      C3926   1.351       .  A
N3922      H3954   1.035       .  S
N3923      C3931   1.346       .  A
N3924      C3928   1.342       .  A
N3924      H3955   1.045       .  S
N3925      C3933   1.351       .  A
C3926      C3934   1.389       .  A
C3926      C3942   1.411       .  A
C3927      C3943   1.410       .  A
C3927      C3935   1.386       .  A
C3928      C3936   1.378       .  A
C3928      C3945   1.399       .  A
C3929      C3944   1.393       .  A
C3929      C3937   1.385       .  A
C3930      C3942   1.402       .  A
C3930      C3938   1.379       .  A
C3931      C3945   1.407       .  A
C3931      C3939   1.393       .  A
C3932      C3940   1.393       .  A
C3932      C3943   1.420       .  A
C3933      C3941   1.381       .  A
C3933      C3944   1.402       .  A
C3934      H3946   1.080       .  S
C3935      H3947   1.079       .  S
C3936      H3948   1.076       .  S
C3937      H3949   1.082       .  S
C3938      H3950   1.082       .  S
C3939      H3951   1.082       .  S
C3940      H3952   1.080       .  S
C3941      H3953   1.082       .  S
C3942      C4013   1.479       .  S
C3943      C4045   1.483       .  S
C3944      C4029   1.497       .  S
C3945      C4058   1.529       .  S
C3956      N3974   1.352       .  A
C3956      C3993   1.477       .  S
N3957      N3974   1.320       .  A
N3957      N3979   1.316       .  A
C3958      N3983   1.377       .  A
C3958      C3996   1.498       .  S
C3958      H4003   1.080       .  S
H3959      C4000   1.081       .  S
C3960      N3984   1.333       .  A
C3960      C3964   1.460       .  S
C3960      H3989   1.082       .  S
Co3961     N4001   2.138       .  S
Co3961     N3977   2.064       .  S
Co3961    Cl4005   2.445       .  S
N3962      C4000   1.367       .  A
N3962      N3969   1.323       .  A
Co3963     N3983   2.154       .  S
Co3963     N3970   2.090       .  S
Co3963    Cl4005   2.516       .  S
C3964      N4002   1.371       .  A
N3965      N3972   1.319       .  A
N3965      N3995   1.339       .  A
N3965     Co3998   2.115   1_565  S
N3966      N3984   1.324       .  A
N3966      N4002   1.346       .  A
N3967      C3996   1.341       .  A
N3967      N3977   1.302       .  A
H3968      C3993   1.078       .  S
N3969      N3990   1.313       .  A
N3970      N3988   1.319       .  A
N3970      N3975   1.328       .  A
C3971      N3975   1.355       .  A
C3971      C3999   1.474       .  S
N3972      C3987   1.327       .  A
C3973      N4001   1.359       .  A
C3973      C3976   1.482       .  S
C3973      H4007   1.075       .  S
C3976      N3997   1.360       .  A
N3977      N3983   1.318       .  A
N3978      C4004   1.346       .  A
N3978      N3980   1.315       .  A
N3978     Co3994   2.097       .  S
N3979      C3993   1.361       .  A
N3980      N4008   1.334       .  A
H3981      C4004   1.082       .  S
H3982      C3999   1.082       .  S
N3984     Co3998   2.108   1_565  S
N3985      N3997   1.324       .  A
N3985      N4001   1.315       .  A
N3985     Co3994   2.099       .  S
C3986      N3990   1.347       .  A
C3986      C4000   1.484       .  S
C3987      C4006   1.455       .  S
C3987      H3991   1.078       .  S
N3988      C3999   1.334       .  A
C3992      N4008   1.362       .  A
C3992      C4004   1.470       .  S
Co3994    Cl4005   2.438       .  S
N3995      C4006   1.362       .  A
C4009      H4016   1.085       .  S
C4009      C4010   1.402       .  A
C4009      C4014   1.400       .  A
C4010      C4011   1.408       .  A
C4011      C4012   1.396       .  A
C4011      C4018   1.514       .  S
C4012      H4017   1.082       .  S
C4012      C4013   1.409       .  A
C4013      C4014   1.411       .  A
C4014      C4015   1.514       .  S
C4015      F4019   1.382       .  S
C4015      F4020   1.383       .  S
C4015      F4021   1.384       .  S
C4018      F4022   1.376       .  S
C4018      F4023   1.383       .  S
C4018      F4024   1.381   1_655  S
C4025      H4032   1.084       .  S
C4025      C4026   1.388       .  A
C4025      C4030   1.398       .  A
C4026      C4027   1.414       .  A
C4027      C4028   1.410       .  A
C4027      C4034   1.518       .  S
C4028      H4033   1.081       .  S
C4028      C4029   1.401       .  A
C4029      C4030   1.426       .  A
C4030      C4031   1.513       .  S
C4031      F4035   1.370       .  S
C4031      F4036   1.384       .  S
C4031      F4037   1.374       .  S
C4034      F4038   1.383       .  S
C4034      F4039   1.381       .  S
C4034      F4040   1.376       .  S
C4041      H4048   1.084       .  S
C4041      C4042   1.404       .  A
C4041      C4046   1.401       .  A
C4042      C4043   1.402       .  A
C4043      C4044   1.403       .  A
C4043      C4050   1.511       .  S
C4044      H4049   1.082       .  S
C4044      C4045   1.406       .  A
C4045      C4046   1.404       .  A
C4046      C4047   1.507       .  S
C4047      F4051   1.380       .  S
C4047      F4052   1.377       .  S
C4047      F4053   1.380       .  S
C4050      F4054   1.383       .  S
C4050      F4055   1.382       .  S
C4050      F4056   1.374       .  S
C4057      H4064   1.075       .  S
C4057      C4058   1.417       .  A
C4057      C4062   1.398       .  A
C4058      C4059   1.419       .  A
C4059      C4060   1.412       .  A
C4059      C4066   1.516       .  S
C4060      H4065   1.084       .  S
C4060      C4061   1.413       .  A
C4061      C4062   1.418       .  A
C4062      C4063   1.525       .  S
C4063      F4067   1.384   1_565  S
C4063      F4068   1.383       .  S
C4063      F4069   1.377       .  S
C4066      F4070   1.382       .  S
C4066      F4071   1.382       .  S
C4066      F4072   1.385       .  S
C4073      H4080   1.078       .  S
C4073      C4074   1.408       .  A
C4073      C4078   1.405       .  A
C4074      C4075   1.404       .  A
C4075      C4076   1.395       .  A
C4075      C4082   1.509       .  S
C4076      H4081   1.083       .  S
C4076      C4077   1.407       .  A
C4077      C4078   1.412       .  A
C4078      C4079   1.515       .  S
C4079      F4083   1.380   1_565  S
C4079      F4084   1.375       .  S
C4079      F4085   1.382       .  S
C4082      F4086   1.381       .  S
C4082      F4087   1.381       .  S
C4082      F4088   1.383       .  S
C4089      H4096   1.075       .  S
C4089      C4090   1.402       .  A
C4089      C4094   1.396       .  A
C4090      C4091   1.422       .  A
C4091      C4092   1.410       .  A
C4091      C4098   1.517   1_556  S
C4092      H4097   1.085       .  S
C4092      C4093   1.403       .  A
C4093      C4094   1.412       .  A
C4094      C4095   1.520       .  S
C4095      F4099   1.384       .  S
C4095      F4100   1.382       .  S
C4095      F4101   1.383       .  S
C4098      F4102   1.384       .  S
C4098      F4103   1.384       .  S
C4098      F4104   1.381       .  S
C4105      H4112   1.079       .  S
C4105      C4106   1.412       .  A
C4105      C4110   1.421       .  A
C4106      C4107   1.405       .  A
C4107      C4108   1.394       .  A
C4107      C4114   1.520       .  S
C4108      H4113   1.070       .  S
C4108      C4109   1.409       .  A
C4109      C4110   1.409       .  A
C4110      C4111   1.509       .  S
C4111      F4115   1.382       .  S
C4111      F4116   1.382       .  S
C4111      F4117   1.384       .  S
C4114      F4118   1.383       .  S
C4114      F4119   1.379       .  S
C4114      F4120   1.384       .  S
C4121      H4128   1.083       .  S
C4121      C4122   1.413       .  A
C4121      C4126   1.420       .  A
C4122      C4123   1.397       .  A
C4123      C4124   1.400       .  A
C4123      C4130   1.499       .  S
C4124      H4129   1.080       .  S
C4124      C4125   1.412       .  A
C4125      C4126   1.430       .  A
C4126      C4127   1.506       .  S
C4127      F4131   1.384       .  S
C4127      F4132   1.383       .  S
C4127      F4133   1.377       .  S
C4130      F4134   1.384       .  S
C4130      F4135   1.383       .  S
C4130      F4136   1.377       .  S
C4137      H4144   1.077       .  S
C4137      C4138   1.403       .  A
C4137      C4142   1.420       .  A
C4138      C4139   1.408       .  A
C4139      C4140   1.400       .  A
C4139      C4146   1.516       .  S
C4140      H4145   1.084       .  S
C4140      C4141   1.406       .  A
C4141      C4142   1.430       .  A
C4142      C4143   1.517       .  S
C4143      F4147   1.382       .  S
C4143      F4148   1.384       .  S
C4143      F4149   1.381       .  S
C4146      F4150   1.384   1_556  S
C4146      F4151   1.371   1_556  S
C4146      F4152   1.384       .  S
C4153      H4160   1.082       .  S
C4153      C4154   1.412       .  A
C4153      C4158   1.409       .  A
C4154      C4155   1.415       .  A
C4155      C4156   1.397       .  A
C4155      C4162   1.509       .  S
C4156      H4161   1.083       .  S
C4156      C4157   1.397       .  A
C4157      C4158   1.413       .  A
C4158      C4159   1.518       .  S
C4159      F4163   1.384       .  S
C4159      F4164   1.383       .  S
C4159      F4165   1.384       .  S
C4162      F4166   1.379       .  S
C4162      F4167   1.380       .  S
C4162      F4168   1.376       .  S
C4169      H4176   1.087       .  S
C4169      C4170   1.392       .  A
C4169      C4174   1.387       .  A
C4170      C4171   1.402       .  A
C4171      C4172   1.411       .  A
C4171      C4178   1.510       .  S
C4172      H4177   1.083       .  S
C4172      C4173   1.411       .  A
C4173      C4174   1.435       .  A
C4174      C4175   1.532       .  S
C4175      F4179   1.379       .  S
C4175      F4180   1.378       .  S
C4175      F4181   1.365       .  S
C4178      F4182   1.383       .  S
C4178      F4183   1.383       .  S
C4178      F4184   1.378       .  S
C4185      H4192   1.083       .  S
C4185      C4186   1.403       .  A
C4185      C4190   1.394       .  A
C4186      C4187   1.422       .  A
C4187      C4188   1.409       .  A
C4187      C4194   1.523       .  S
C4188      H4193   1.074       .  S
C4188      C4189   1.416       .  A
C4189      C4190   1.431       .  A
C4190      C4191   1.519       .  S
C4191      F4195   1.383       .  S
C4191      F4196   1.382       .  S
C4191      F4197   1.363       .  S
C4194      F4198   1.383       .  S
C4194      F4199   1.381       .  S
C4194      F4200   1.385       .  S
