geometry optimzed in LAMMPS
_audit_creation_date              2020-11-30 
_audit_creation_method            'lammps2cif' 
_symmetry_space_group_name_H-M    'P1' 
_symmetry_Int_Tables_number       1 
_symmetry_cell_setting            triclinic 
loop_ 
_symmetry_equiv_pos_as_xyz 
  x,y,z 
_cell_length_a                    38.53108061 
_cell_length_b                    38.815836864746316 
_cell_length_c                    52.16207066964515 
_cell_angle_alpha                 89.80154411845109 
_cell_angle_beta                  90.31159275741724 
_cell_angle_gamma                 90.28725951593908 
loop_ 
_atom_site_label 
_atom_site_type_symbol 
_atom_site_fract_x 
_atom_site_fract_y 
_atom_site_fract_z 
_atom_site_charge 
C1          C  0.11986827  0.96316836  0.02358858     0.04200
C2          C  0.13312096  0.95217673  0.99993168    -0.12000
C3          C  0.11574635  0.95984181  0.97681251     0.01700
C4          C  0.08488298  0.97908728  0.97770347    -0.10500
C5          C  0.07158317  0.99095298  0.00113659     0.04200
C6          C  0.08907697  0.98243830  0.02404825    -0.09900
H7          H  0.15729557  0.93803577  0.99954861     0.09800
H8          H  0.07150347  0.98548121  0.96001230     0.07300
H9          H  0.07902057  0.99119402  0.04224028     0.07100
N10         N  0.25151095  0.22561544  0.28522971    -0.26200
N11         N  0.26765381  0.21099808  0.26576370    -0.34100
C12         C  0.27542268  0.23524440  0.24815047     0.02100
C13         C  0.26370663  0.26670865  0.25684270     0.08100
C14         C  0.24863065  0.25962351  0.28037951    -0.05000
H15         H  0.28894376  0.23031299  0.23042277     0.08800
H16         H  0.23686263  0.27792663  0.29323323     0.10000
Cu17       Cu  0.27950732  0.15891324  0.26376260     0.44200
Cu18       Cu  0.23521810  0.19907370  0.31822113     0.42000
Cu19       Cu  0.26731720  0.11184916  0.32198876     0.43900
N20         N  0.28764810  0.10620545  0.26682056    -0.33600
N21         N  0.28408111  0.08904348  0.28856805    -0.27900
C22         C  0.28740662  0.05512510  0.28403218    -0.04000
C23         C  0.29305560  0.05070350  0.25810168     0.08200
C24         C  0.29319151  0.08363604  0.24779119     0.02000
H25         H  0.28312694  0.03511337  0.29816674     0.09700
H26         H  0.29499825  0.09055466  0.22773749     0.08800
N27         N  0.23888900  0.13471131  0.35071119    -0.35100
N28         N  0.22536037  0.16589903  0.34923986    -0.27300
C29         C  0.20499059  0.17072648  0.36991301    -0.02500
C30         C  0.20612122  0.14118832  0.38508056     0.06100
C31         C  0.22794448  0.11910274  0.37222044     0.04200
H32         H  0.19026323  0.19384578  0.37352587     0.09300
H33         H  0.23410380  0.09282909  0.37745077     0.08200
N34         N  0.25019625  0.84311003  0.21302762    -0.26200
N35         N  0.26702619  0.85734563  0.23253999    -0.34100
C36         C  0.27585973  0.83264848  0.24950751     0.02100
C37         C  0.26412489  0.80122629  0.24043452     0.08100
C38         C  0.24799697  0.80881816  0.21722585    -0.05000
H39         H  0.28969348  0.83733411  0.26726985     0.08800
H40         H  0.23538971  0.79077221  0.20440790     0.10000
Cu41       Cu  0.27746095  0.90976719  0.23609312     0.44200
Cu42       Cu  0.23086972  0.87121220  0.18146700     0.42000
Cu43       Cu  0.26070160  0.95963437  0.17974198     0.43900
N44         N  0.28503211  0.96281949  0.23442955    -0.33600
N45         N  0.28039402  0.98067484  0.21309017    -0.27900
C46         C  0.28471645  0.01435768  0.21803606    -0.04000
C47         C  0.29202822  0.01805718  0.24383381     0.08200
C48         C  0.29209422  0.98484133  0.25369605     0.02000
H49         H  0.28008349  0.03475785  0.20427786     0.09700
H50         H  0.29524598  0.97737330  0.27356715     0.08800
N51         N  0.22962150  0.93816269  0.15158700    -0.35100
N52         N  0.21731367  0.90631718  0.15226567    -0.27300
C53         C  0.19607092  0.90181850  0.13184306    -0.02500
C54         C  0.19527167  0.93225555  0.11763976     0.06100
C55         C  0.21687055  0.95459326  0.13090203     0.04200
H56         H  0.18254512  0.87804820  0.12748647     0.09300
H57         H  0.22227529  0.98126956  0.12627698     0.08200
N58         N  0.25255176  0.22644534  0.71908440    -0.26200
N59         N  0.26867398  0.21073637  0.73831644    -0.34100
C60         C  0.27943380  0.23444850  0.75543674     0.02100
C61         C  0.26969318  0.26663567  0.74668252     0.08100
C62         C  0.25272610  0.26058981  0.72360999    -0.05000
H63         H  0.29330473  0.22859979  0.77299529     0.08800
H64         H  0.24133920  0.27962914  0.71097401     0.10000
Cu65       Cu  0.27597288  0.15785723  0.74127167     0.44200
Cu66       Cu  0.23130725  0.20166342  0.68685193     0.42000
Cu67       Cu  0.25381311  0.11231254  0.68471729     0.43900
N68         N  0.27971650  0.10465286  0.73848443    -0.33600
N69         N  0.27266939  0.08818876  0.71696188    -0.27900
C70         C  0.27490664  0.05409661  0.72098415    -0.04000
C71         C  0.28343861  0.04873603  0.74640484     0.08200
C72         C  0.28631456  0.08132350  0.75700730     0.02000
H73         H  0.26814650  0.03471041  0.70694574     0.09700
H74         H  0.29113624  0.08755588  0.77690827     0.08800
N75         N  0.22712556  0.13679987  0.65581699    -0.35100
N76         N  0.21716852  0.16931262  0.65635813    -0.27300
C77         C  0.19867470  0.17591681  0.63480135    -0.02500
C78         C  0.19755997  0.14605849  0.62013278     0.06100
C79         C  0.21578688  0.12197651  0.63417360     0.04200
H80         H  0.18742258  0.20059813  0.62997938     0.09300
H81         H  0.22000843  0.09527080  0.62924745     0.08200
N82         N  0.24300596  0.83834833  0.78540888    -0.26200
N83         N  0.25863188  0.85446856  0.76620479    -0.34100
C84         C  0.26827960  0.83129701  0.74849974     0.02100
C85         C  0.25848445  0.79883074  0.75673380     0.08100
C86         C  0.24250692  0.80425463  0.78022929    -0.05000
H87         H  0.28175805  0.83768895  0.73096225     0.08800
H88         H  0.23142969  0.78481130  0.79268092     0.10000
Cu89       Cu  0.26764163  0.90719311  0.76434743     0.44200
Cu90       Cu  0.22331985  0.86382532  0.81805961     0.42000
Cu91       Cu  0.25086589  0.95309229  0.82162406     0.43900
N92         N  0.27559175  0.95990076  0.76770304    -0.33600
N93         N  0.27105086  0.97644456  0.78949172    -0.27900
C94         C  0.27556321  0.01039559  0.78558465    -0.04000
C95         C  0.28289451  0.01553907  0.75997659     0.08200
C96         C  0.28275985  0.98299277  0.74916450     0.02000
H97         H  0.27079558  0.03000626  0.79980546     0.09700
H98         H  0.28573130  0.97672932  0.72910814     0.08800
N99         N  0.21922967  0.93002207  0.84841317    -0.35100
N100        N  0.20814313  0.89775426  0.84759896    -0.27300
C101        C  0.18641077  0.89260936  0.86758409    -0.02500
C102        C  0.18357418  0.92330879  0.88127807     0.06100
C103        C  0.20500207  0.94614549  0.86844078     0.04200
H104        H  0.17311421  0.86858434  0.87152474     0.09300
H105        H  0.21016951  0.97275485  0.87330003     0.08200
C106        C  0.13147386  0.10596307  0.47795003     0.04200
C107        C  0.10089730  0.08597316  0.47836449    -0.12000
C108        C  0.08509875  0.07702634  0.50185297     0.01700
C109        C  0.10003330  0.08898917  0.52489224    -0.10500
C110        C  0.13040902  0.10914234  0.52464477     0.04200
C111        C  0.14578906  0.11753707  0.50114627    -0.09900
H112        H  0.08980149  0.07691532  0.46047248     0.09800
H113        H  0.08881575  0.08151147  0.54310175     0.07300
H114        H  0.16922695  0.13311073  0.50091377     0.07100
N115        N  0.28172136  0.34225405  0.21673495    -0.26200
N116        N  0.26425862  0.35655848  0.23570726    -0.34100
C117        C  0.25520461  0.33196243  0.25269928     0.02100
C118        C  0.26741660  0.30062823  0.24412237     0.08100
C119        C  0.28408233  0.30811212  0.22125371    -0.05000
H120        H  0.24070337  0.33661364  0.27003791     0.08800
H121        H  0.29701224  0.29008262  0.20880136     0.10000
Cu122      Cu  0.25257661  0.40880362  0.23815917     0.44200
Cu123      Cu  0.30124566  0.36952699  0.18513468     0.42000
Cu124      Cu  0.26650550  0.45554363  0.18040873     0.43900
N125        N  0.24325007  0.46145468  0.23484382    -0.33600
N126        N  0.24695905  0.47817412  0.21292925    -0.27900
C127        C  0.24238527  0.51204636  0.21682765    -0.04000
C128        C  0.23582225  0.51708684  0.24254804     0.08200
C129        C  0.23642668  0.48441942  0.25342722     0.02000
H130        H  0.24661779  0.53174271  0.20244497     0.09700
H131        H  0.23425484  0.47804985  0.27355989     0.08800
N132        N  0.29878839  0.43440672  0.15333796    -0.35100
N133        N  0.31324537  0.40368059  0.15522789    -0.27300
C134        C  0.33512485  0.39964915  0.13532457    -0.02500
C135        C  0.33393339  0.42920582  0.12021484     0.06100
C136        C  0.31064834  0.45053488  0.13233164     0.04200
H137        H  0.35040277  0.37682256  0.13193845     0.09300
H138        H  0.30350839  0.47641048  0.12669592     0.08200
N139        N  0.27921126  0.72637415  0.28196629    -0.26200
N140        N  0.26351101  0.71144880  0.26222675    -0.34100
C141        C  0.25606870  0.73558583  0.24440726     0.02100
C142        C  0.26754789  0.76726409  0.25323731     0.08100
C143        C  0.28212159  0.76040073  0.27708614    -0.05000
H144        H  0.24293211  0.73044575  0.22643019     0.08800
H145        H  0.29362455  0.77887507  0.29012143     0.10000
Cu146      Cu  0.25176872  0.65899454  0.26016421     0.44200
Cu147      Cu  0.29520469  0.70031678  0.31534095     0.42000
Cu148      Cu  0.26423984  0.61266649  0.31882095     0.43900
N149        N  0.24271063  0.60618369  0.26371625    -0.33600
N150        N  0.24613424  0.58959125  0.28573638    -0.27900
C151        C  0.24178609  0.55562816  0.28181677    -0.04000
C152        C  0.23566617  0.55041167  0.25599723     0.08200
C153        C  0.23628766  0.58304901  0.24507732     0.02000
H154        H  0.24574610  0.53603648  0.29632287     0.09700
H155        H  0.23436898  0.58932242  0.22490187     0.08800
N156        N  0.29308693  0.63568889  0.34755906    -0.35100
N157        N  0.30585085  0.66732142  0.34636268    -0.27300
C158        C  0.32613542  0.67260941  0.36721150    -0.02500
C159        C  0.32582992  0.64285272  0.38218841     0.06100
C160        C  0.30456270  0.62016659  0.36899278     0.04200
H161        H  0.34020728  0.69622298  0.37108174     0.09300
H162        H  0.29901240  0.59363936  0.37399397     0.08200
C163        C  0.40912898  0.46337396  0.98015579     0.04200
C164        C  0.43975834  0.48324595  0.98062687    -0.12000
C165        C  0.45419091  0.49449118  0.00406536     0.01700
C166        C  0.43784313  0.48515060  0.02718038    -0.10500
C167        C  0.40747565  0.46486739  0.02699285     0.04200
C168        C  0.39355318  0.45398511  0.00343081    -0.09900
H169        H  0.45162113  0.49109886  0.96273115     0.09800
H170        H  0.44854364  0.49396634  0.04527164     0.07300
H171        H  0.37020594  0.43828307  0.00318499     0.07100
N172        N  0.29056945  0.34116471  0.78697662    -0.26200
N173        N  0.27441964  0.35606456  0.76743821    -0.34100
C174        C  0.26506482  0.33199384  0.75025167     0.02100
C175        C  0.27565232  0.30023162  0.75922207     0.08100
C176        C  0.29180834  0.30693782  0.78256387    -0.05000
H177        H  0.25106965  0.33728770  0.73264915     0.08800
H178        H  0.30315272  0.28828724  0.79554263     0.10000
Cu179      Cu  0.26380496  0.40811829  0.76459747     0.44200
Cu180      Cu  0.30869960  0.36837905  0.81923509     0.42000
Cu181      Cu  0.27497959  0.45569788  0.82197339     0.43900
N182        N  0.25439871  0.46042456  0.76670497    -0.33600
N183        N  0.25709701  0.47773610  0.78837090    -0.27900
C184        C  0.25275484  0.51146452  0.78352855    -0.04000
C185        C  0.24745420  0.51560065  0.75747478     0.08200
C186        C  0.24851778  0.48269254  0.74737547     0.02000
H187        H  0.25625922  0.53164064  0.79757099     0.09700
H188        H  0.24728092  0.47564731  0.72734505     0.08800
N189        N  0.30571581  0.43404185  0.85025862    -0.35100
N190        N  0.31967273  0.40301531  0.84916873    -0.27300
C191        C  0.34057128  0.39885653  0.86983232    -0.02500
C192        C  0.33931530  0.42860086  0.88460216     0.06100
C193        C  0.31695885  0.45018718  0.87147405     0.04200
H194        H  0.35524385  0.37578794  0.87396296     0.09300
H195        H  0.31005386  0.47625621  0.87657349     0.08200
N196        N  0.27947746  0.72646679  0.71439834    -0.26200
N197        N  0.26543052  0.71001782  0.73410353    -0.34100
C198        C  0.25594376  0.73305000  0.75196980     0.02100
C199        C  0.26434341  0.76572545  0.74333330     0.08100
C200        C  0.27927096  0.76057373  0.71943861    -0.05000
H201        H  0.24370453  0.72640660  0.76994974     0.08800
H202        H  0.28903685  0.78022182  0.70657125     0.10000
Cu203      Cu  0.25874025  0.65697059  0.73647282     0.44200
Cu204      Cu  0.29742075  0.70155063  0.68108180     0.42000
Cu205      Cu  0.27500616  0.61023817  0.67981841     0.43900
N206        N  0.25307453  0.60385399  0.73431867    -0.33600
N207        N  0.25802050  0.58670150  0.71285433    -0.27900
C208        C  0.25477784  0.55276134  0.71747035    -0.04000
C209        C  0.24770925  0.54831764  0.74321733     0.08200
C210        C  0.24675365  0.58123597  0.75333714     0.02000
H211        H  0.25964380  0.53282512  0.70351988     0.09700
H212        H  0.24338054  0.58816993  0.77322904     0.08800
N213        N  0.30028763  0.63543885  0.65057136    -0.35100
N214        N  0.30969884  0.66824495  0.65056015    -0.27300
C215        C  0.32776197  0.67453975  0.62885132    -0.02500
C216        C  0.32947611  0.64417866  0.61468099     0.06100
C217        C  0.31182608  0.62016510  0.62929183     0.04200
H218        H  0.33883966  0.69929269  0.62381387     0.09300
H219        H  0.30869696  0.59298331  0.62534743     0.08200
C220        C  0.40255844  0.60879442  0.52167504     0.04200
C221        C  0.38698728  0.61751002  0.49828746    -0.12000
C222        C  0.40180325  0.60766868  0.47499641     0.01700
C223        C  0.43290917  0.58868181  0.47524883    -0.10500
C224        C  0.44880992  0.57913745  0.49870934     0.04200
C225        C  0.43353116  0.58985325  0.52186846    -0.09900
H226        H  0.36291402  0.63187655  0.49824242     0.09800
H227        H  0.44385591  0.58016151  0.45728057     0.07300
H228        H  0.44530887  0.58290187  0.54005959     0.07100
C229        C  0.62389490  0.60896187  0.97722264     0.04200
C230        C  0.63861669  0.62132313  0.00004928    -0.12000
C231        C  0.62304861  0.61457976  0.02379072     0.01700
C232        C  0.59193781  0.59549769  0.02460556    -0.10500
C233        C  0.57688950  0.58248388  0.00190874     0.04200
C234        C  0.59293899  0.58967776  0.97823181    -0.09900
H235        H  0.66265765  0.63593143  0.99937229     0.09800
H236        H  0.58042827  0.58932012  0.04297874     0.07300
H237        H  0.58173836  0.57968431  0.96064885     0.07100
N238        N  0.73975196  0.33621270  0.28424911    -0.26200
N239        N  0.75387212  0.35238960  0.26443921    -0.34100
C240        C  0.76504192  0.32902009  0.24742701     0.02100
C241        C  0.75771535  0.29650253  0.25680328     0.08100
C242        C  0.74165206  0.30198230  0.28017102    -0.05000
H243        H  0.77783252  0.33534262  0.22959436     0.08800
H244        H  0.73227447  0.28252522  0.29335036     0.10000
Cu245      Cu  0.75935580  0.40535653  0.26078786     0.44200
Cu246      Cu  0.71946194  0.36105051  0.31660229     0.42000
Cu247      Cu  0.74385572  0.45078491  0.31797291     0.43900
N248        N  0.76591366  0.45824070  0.26352219    -0.33600
N249        N  0.76151880  0.47473122  0.28533617    -0.27900
C250        C  0.76630141  0.50864311  0.28152556    -0.04000
C251        C  0.77388025  0.51379848  0.25596300     0.08200
C252        C  0.77340792  0.48132034  0.24503908     0.02000
H253        H  0.76248063  0.52818037  0.29596201     0.09700
H254        H  0.77712554  0.47503720  0.22505871     0.08800
N255        N  0.71590643  0.42703118  0.34650185    -0.35100
N256        N  0.70548561  0.39455767  0.34633065    -0.27300
C257        C  0.68518575  0.38916862  0.36705381    -0.02500
C258        C  0.68264915  0.41997146  0.38058362     0.06100
C259        C  0.70282759  0.44306013  0.36694571     0.04200
H260        H  0.67239179  0.36502094  0.37146516     0.09300
H261        H  0.70753644  0.46990136  0.37130464     0.08200
N262        N  0.75556740  0.72643260  0.21657377    -0.26200
N263        N  0.76960716  0.70941937  0.23606123    -0.34100
C264        C  0.78211570  0.73205725  0.25332629     0.02100
C265        C  0.77582666  0.76496980  0.24438898     0.08100
C266        C  0.75893759  0.76046378  0.22105781    -0.05000
H267        H  0.79517880  0.72498125  0.27097142     0.08800
H268        H  0.74997952  0.78045631  0.20816825     0.10000
Cu269      Cu  0.77294974  0.65625046  0.23863562     0.44200
Cu270      Cu  0.73335663  0.70287821  0.18411753     0.42000
Cu271      Cu  0.75540677  0.61278488  0.18046654     0.43900
N272        N  0.77573696  0.60318321  0.23524265    -0.33600
N273        N  0.77094235  0.58736086  0.21313985    -0.27900
C274        C  0.77169298  0.55313099  0.21690374    -0.04000
C275        C  0.77682696  0.54710419  0.24273687     0.08200
C276        C  0.77937204  0.57938050  0.25384204     0.02000
H277        H  0.76602910  0.53419303  0.20228482     0.09700
H278        H  0.78184850  0.58515162  0.27404203     0.08800
N279        N  0.72726612  0.63819128  0.15272809    -0.35100
N280        N  0.71754237  0.67075602  0.15384684    -0.27300
C281        C  0.69764216  0.67767641  0.13303168    -0.02500
C282        C  0.69523017  0.64797849  0.11822395     0.06100
C283        C  0.71420775  0.62364084  0.13150521     0.04200
H284        H  0.68632155  0.70250714  0.12877686     0.09300
H285        H  0.71779483  0.59690602  0.12639275     0.08200
N286        N  0.74689413  0.33340053  0.71089150    -0.26200
N287        N  0.76317669  0.34809162  0.73048374    -0.34100
C288        C  0.77272997  0.32364869  0.74743007     0.02100
C289        C  0.76197917  0.29191123  0.73835776     0.08100
C290        C  0.74569431  0.29903988  0.71510693    -0.05000
H291        H  0.78623028  0.32875046  0.76526612     0.08800
H292        H  0.73367689  0.28062654  0.70227341     0.10000
Cu293      Cu  0.77170161  0.40078581  0.73467460     0.44200
Cu294      Cu  0.72683662  0.36097775  0.67919668     0.42000
Cu295      Cu  0.75175307  0.45097828  0.67964266     0.43900
N296        N  0.77762493  0.45409801  0.73380287    -0.33600
N297        N  0.77175520  0.47221445  0.71276394    -0.27900
C298        C  0.77598580  0.50587507  0.71784343    -0.04000
C299        C  0.78452694  0.50927874  0.74345311     0.08200
C300        C  0.78532023  0.47592932  0.75306872     0.02000
H301        H  0.77073010  0.52642466  0.70433264     0.09700
H302        H  0.78979051  0.46821562  0.77275355     0.08800
N303        N  0.72282186  0.42882187  0.65063333    -0.35100
N304        N  0.71230747  0.39634327  0.65029987    -0.27300
C305        C  0.69229066  0.39161755  0.62920232    -0.02500
C306        C  0.69056426  0.42258820  0.61567116     0.06100
C307        C  0.71020633  0.44541377  0.63000689     0.04200
H308        H  0.68024589  0.36740694  0.62393755     0.09300
H309        H  0.71441008  0.47250118  0.62608837     0.08200
N310        N  0.75483261  0.71890246  0.78554689    -0.26200
N311        N  0.77215705  0.70370992  0.76689924    -0.34100
C312        C  0.78332057  0.72781854  0.75018225     0.02100
C313        C  0.77246769  0.75975792  0.75854507     0.08100
C314        C  0.75446150  0.75311328  0.78100457    -0.05000
H315        H  0.79809171  0.72240432  0.73309540     0.08800
H316        H  0.74211811  0.77180275  0.79324288     0.10000
Cu317      Cu  0.77992394  0.65079849  0.76440617     0.44200
Cu318      Cu  0.73324375  0.69268476  0.81697826     0.42000
Cu319      Cu  0.75987207  0.60346624  0.82106055     0.43900
N320        N  0.78384820  0.59743757  0.76684052    -0.33600
N321        N  0.77790205  0.58021945  0.78826921    -0.27900
C322        C  0.77958511  0.54621823  0.78359771    -0.04000
C323        C  0.78649974  0.54176472  0.75786433     0.08200
C324        C  0.78910180  0.57476834  0.74780832     0.02000
H325        H  0.77325487  0.52632277  0.79739912     0.09700
H326        H  0.79262336  0.58176449  0.72789833     0.08800
N327        N  0.73072593  0.62755168  0.84872934    -0.35100
N328        N  0.71925425  0.65954367  0.84712911    -0.27300
C329        C  0.69874661  0.66560403  0.86753245    -0.02500
C330        C  0.69769124  0.63603571  0.88265090     0.06100
C331        C  0.71827711  0.61259985  0.87003564     0.04200
H332        H  0.68587874  0.68977731  0.87122973     0.09300
H333        H  0.72309407  0.58614135  0.87553173     0.08200
C334        C  0.61387541  0.45754332  0.47534243     0.04200
C335        C  0.58379802  0.47804099  0.47611771    -0.12000
C336        C  0.57048230  0.48996588  0.49953767     0.01700
C337        C  0.58698255  0.47995012  0.52256828    -0.10500
C338        C  0.61696085  0.45938174  0.52214139     0.04200
C339        C  0.63037064  0.44869952  0.49852619    -0.09900
H340        H  0.57050879  0.48464752  0.45843219     0.09800
H341        H  0.57720122  0.48900149  0.54075726     0.07300
H342        H  0.65408283  0.43380046  0.49827731     0.07100
C343        C  0.90453698  0.10940986  0.97565706     0.04200
C344        C  0.93498180  0.08962569  0.97613861    -0.12000
C345        C  0.95073232  0.08046488  0.99963672     0.01700
C346        C  0.93592603  0.09204396  0.02269337    -0.10500
C347        C  0.90535988  0.11170516  0.02238060     0.04200
C348        C  0.89000661  0.12033132  0.99878617    -0.09900
H349        H  0.94594385  0.08074395  0.95826693     0.09800
H350        H  0.94724524  0.08441642  0.04089975     0.07300
H351        H  0.86625804  0.13519880  0.99841890     0.07100
N352        N  0.78276244  0.22380783  0.21658832    -0.26200
N353        N  0.76831115  0.20749962  0.23618705    -0.34100
C354        C  0.75763543  0.23071419  0.25350263     0.02100
C355        C  0.76556529  0.26328230  0.24446430     0.08100
C356        C  0.78152108  0.25796368  0.22103826    -0.05000
H357        H  0.74456355  0.22428598  0.27120280     0.08800
H358        H  0.79108054  0.27749560  0.20799299     0.10000
Cu359      Cu  0.76186848  0.15460051  0.23869535     0.44200
Cu360      Cu  0.80214168  0.19919438  0.18389947     0.42000
Cu361      Cu  0.77517855  0.11051711  0.17980267     0.43900
N362        N  0.75771313  0.10164659  0.23523787    -0.33600
N363        N  0.76132814  0.08565383  0.21311923    -0.27900
C364        C  0.76115402  0.05147761  0.21714212    -0.04000
C365        C  0.75758496  0.04567795  0.24311799     0.08200
C366        C  0.75527880  0.07801566  0.25405310     0.02000
H367        H  0.76636880  0.03249514  0.20254469     0.09700
H368        H  0.75428488  0.08400350  0.27427060     0.08800
N369        N  0.80267447  0.13525943  0.15141367    -0.35100
N370        N  0.81445711  0.16722712  0.15291953    -0.27300
C371        C  0.83413666  0.17372659  0.13206658    -0.02500
C372        C  0.83428053  0.14441961  0.11678163     0.06100
C373        C  0.81410194  0.12070933  0.12979456     0.04200
H374        H  0.84714015  0.19795231  0.12824122     0.09300
H375        H  0.80900920  0.09426357  0.12439832     0.08200
N376        N  0.80384244  0.83720144  0.28471941    -0.26200
N377        N  0.79073994  0.85354125  0.26458121    -0.34100
C378        C  0.77934470  0.83045342  0.24731719     0.02100
C379        C  0.78537390  0.79782944  0.25682677     0.08100
C380        C  0.80102689  0.80297563  0.28058542    -0.05000
H381        H  0.76684702  0.83707009  0.22935482     0.08800
H382        H  0.80911260  0.78332640  0.29407317     0.10000
Cu383      Cu  0.78522951  0.90624731  0.26128218     0.44200
Cu384      Cu  0.82294054  0.86266938  0.31750825     0.42000
Cu385      Cu  0.79473236  0.95184129  0.31920549     0.43900
N386        N  0.77457693  0.95813545  0.26416228    -0.33600
N387        N  0.77669407  0.97471165  0.28615644    -0.27900
C388        C  0.76932026  0.00809960  0.28227771    -0.04000
C389        C  0.76237319  0.01273857  0.25649531     0.08200
C390        C  0.76590547  0.98053811  0.24553221     0.02000
H391        H  0.77092442  0.02778168  0.29686939     0.09700
H392        H  0.76357348  0.97406961  0.22544169     0.08800
N393        N  0.82288672  0.92872798  0.34805689    -0.35100
N394        N  0.83488889  0.89687072  0.34754653    -0.27300
C395        C  0.85418525  0.89169396  0.36891997    -0.02500
C396        C  0.85374635  0.92166074  0.38346528     0.06100
C397        C  0.83370435  0.94442058  0.36953863     0.04200
H398        H  0.86707323  0.86781297  0.37372446     0.09300
H399        H  0.82793924  0.97085971  0.37438151     0.08200
N400        N  0.78021733  0.21781439  0.77998201    -0.26200
N401        N  0.76293612  0.20256375  0.76113044    -0.34100
C402        C  0.75412499  0.22632596  0.74337023     0.02100
C403        C  0.76634412  0.25815282  0.75132829     0.08100
C404        C  0.78276935  0.25173123  0.77460420    -0.05000
H405        H  0.73955063  0.22083914  0.72605995     0.08800
H406        H  0.79534323  0.27043300  0.78690586     0.10000
Cu407      Cu  0.75137937  0.15014357  0.76033133     0.44200
Cu408      Cu  0.79856439  0.19209355  0.81287538     0.42000
Cu409      Cu  0.76749638  0.10421104  0.81877197     0.43900
N410        N  0.74402614  0.09726623  0.76421362    -0.33600
N411        N  0.74852532  0.08069208  0.78613733    -0.27900
C412        C  0.74568510  0.04660565  0.78206917    -0.04000
C413        C  0.73959947  0.04140561  0.75623856     0.08200
C414        C  0.73857284  0.07407405  0.74549863     0.02000
H415        H  0.75122614  0.02706992  0.79633653     0.09700
H416        H  0.73656689  0.08041648  0.72533908     0.08800
N417        N  0.79773419  0.12828586  0.84622834    -0.35100
N418        N  0.81028990  0.15992744  0.84421059    -0.27300
C419        C  0.83064721  0.16624296  0.86485303    -0.02500
C420        C  0.83070893  0.13714722  0.88056520     0.06100
C421        C  0.80958449  0.11372754  0.86792057     0.04200
H422        H  0.84416117  0.19030442  0.86823331     0.09300
H423        H  0.80401236  0.08745301  0.87358279     0.08200
N424        N  0.79546494  0.83494550  0.71929329    -0.26200
N425        N  0.77550731  0.84925507  0.73685743    -0.34100
C426        C  0.76474601  0.82487641  0.75344165     0.02100
C427        C  0.77836187  0.79358301  0.74609858     0.08100
C428        C  0.79774116  0.80089995  0.72436360    -0.05000
H429        H  0.74780974  0.82960121  0.76951109     0.08800
H430        H  0.81214563  0.78276598  0.71292490     0.10000
Cu431      Cu  0.76224993  0.90104790  0.73795189     0.44200
Cu432      Cu  0.81750206  0.86223630  0.68847975     0.42000
Cu433      Cu  0.78424688  0.94933812  0.68268307     0.43900
N434        N  0.75248511  0.95345153  0.73469231    -0.33600
N435        N  0.75946600  0.97090425  0.71356046    -0.27900
C436        C  0.75339961  0.00450923  0.71749351    -0.04000
C437        C  0.74245903  0.00855044  0.74247357     0.08200
C438        C  0.74211526  0.97563488  0.75286161     0.02000
H439        H  0.75953521  0.02475266  0.70392503     0.09700
H440        H  0.73679528  0.96860251  0.77254144     0.08800
N441        N  0.81693103  0.92717896  0.65638616    -0.35100
N442        N  0.83061930  0.89610750  0.65851492    -0.27300
C443        C  0.85170722  0.89097778  0.63827824    -0.02500
C444        C  0.85067708  0.92011334  0.62272985     0.06100
C445        C  0.82843703  0.94238810  0.63490777     0.04200
H446        H  0.86593413  0.86751982  0.63476858     0.09300
H447        H  0.82127955  0.96803372  0.62871057     0.08200
C448        C  0.91902555  0.95452053  0.52720150     0.04200
C449        C  0.94888295  0.97561078  0.52741271    -0.12000
C450        C  0.96418215  0.98661170  0.50430185     0.01700
C451        C  0.94921458  0.97630224  0.48087752    -0.10500
C452        C  0.91941429  0.95538228  0.48036389     0.04200
C453        C  0.90470301  0.94438911  0.50354695    -0.09900
H454        H  0.95997655  0.98379783  0.54553460     0.09800
H455        H  0.96019670  0.98538709  0.46298671     0.07300
H456        H  0.88192257  0.92789852  0.50313158     0.07100
C457        C  0.84924542  0.94085931  0.57739223     0.24600
C458        C  0.86813175  0.92660710  0.59794494    -0.23500
C459        C  0.90385814  0.92076974  0.59501410     0.19600
C460        C  0.92054481  0.92973761  0.57205265     0.24600
C461        C  0.90164882  0.94431343  0.55153235    -0.21000
C462        C  0.86573016  0.94943009  0.55442329     0.19500
F463        F  0.84664149  0.96378919  0.53524756    -0.13400
F464        F  0.81460661  0.94640064  0.57950325    -0.15700
F465        F  0.95511118  0.92395231  0.56981841    -0.15700
F466        F  0.92285725  0.90772298  0.61473793    -0.13400
C467        C  0.86783058  0.95470278  0.45098947     0.24600
C468        C  0.90269498  0.94607817  0.45563100    -0.23500
C469        C  0.92133767  0.92875056  0.43651722     0.19600
C470        C  0.90525246  0.91990411  0.41323832     0.24600
C471        C  0.87044987  0.92879030  0.40855521    -0.23400
C472        C  0.85195876  0.94638688  0.42763220     0.19500
F473        F  0.81827311  0.95523661  0.42377844    -0.13400
F474        F  0.84934339  0.97197993  0.46888407    -0.15700
F475        F  0.92405370  0.90383636  0.39492733    -0.15700
F476        F  0.95504829  0.92014850  0.44051013    -0.13400
C477        C  0.83557410  0.11897628  0.07286690     0.24600
C478        C  0.85230101  0.13823056  0.09216513    -0.23500
C479        C  0.88673625  0.14927380  0.08824618     0.19600
C480        C  0.90431613  0.14042854  0.06568505     0.24600
C481        C  0.88752011  0.12093687  0.04654983    -0.23400
C482        C  0.85294582  0.11049127  0.05034413     0.19500
F483        F  0.83614922  0.09128579  0.03239287    -0.13400
F484        F  0.80209767  0.10859597  0.07566163    -0.15700
F485        F  0.93759551  0.15114246  0.06241021    -0.15700
F486        F  0.90376742  0.16752275  0.10660200    -0.13400
C487        C  0.88250674  0.14592408  0.90984870     0.24600
C488        C  0.84954721  0.13118116  0.90520448    -0.23500
C489        C  0.83501591  0.10950439  0.92412205     0.19600
C490        C  0.85308132  0.10245862  0.94685260     0.24600
C491        C  0.88612397  0.11670354  0.95122822    -0.23400
C492        C  0.90067633  0.13858783  0.93262681     0.19500
F493        F  0.93227106  0.15325258  0.93672169    -0.13400
F494        F  0.89763326  0.16666816  0.89210120    -0.15700
F495        F  0.83838063  0.08136619  0.96461102    -0.15700
F496        F  0.80288105  0.09561392  0.92097110    -0.13400
C497        C  0.63823164  0.41787324  0.58651398     0.24600
C498        C  0.67187949  0.43071284  0.59134855    -0.23500
C499        C  0.68718065  0.45293708  0.57315520     0.19600
C500        C  0.66923252  0.46224171  0.55078739     0.24600
C501        C  0.63542093  0.44995452  0.54621783    -0.23400
C502        C  0.62007485  0.42763861  0.56422224     0.19500
F503        F  0.58767889  0.41490750  0.55999256    -0.13400
F504        F  0.62248672  0.39673560  0.60371136    -0.15700
F505        F  0.68477668  0.48362898  0.53363177    -0.15700
F506        F  0.71990900  0.46519028  0.57674730    -0.13400
C507        C  0.65803074  0.40374249  0.42378816     0.24600
C508        C  0.66231990  0.42806264  0.40398341    -0.23500
C509        C  0.64858120  0.46134391  0.40727833     0.19600
C510        C  0.63266403  0.47066466  0.43021871     0.24600
C511        C  0.62911510  0.44672751  0.45036093    -0.23400
C512        C  0.64146618  0.41291614  0.44668113     0.19500
F513        F  0.63758937  0.38866425  0.46527754    -0.13400
F514        F  0.67106546  0.37148601  0.42148179    -0.15700
F515        F  0.62203764  0.50373146  0.43301912    -0.15700
F516        F  0.65037973  0.48516113  0.38820972    -0.13400
C517        C  0.67536379  0.61295623  0.05214421     0.24600
C518        C  0.64142127  0.62469440  0.04770949    -0.23500
C519        C  0.62569596  0.64592743  0.06607300     0.19600
C520        C  0.64356682  0.65485032  0.08868863     0.24600
C521        C  0.67718503  0.64216333  0.09339625    -0.23400
C522        C  0.69297166  0.62147441  0.07471151     0.19500
F523        F  0.72573089  0.60953544  0.07820123    -0.13400
F524        F  0.69123762  0.59235227  0.03483378    -0.15700
F525        F  0.62751122  0.67469091  0.10636859    -0.15700
F526        F  0.59316868  0.65814327  0.06201560    -0.13400
C527        C  0.67661936  0.60426453  0.94963138     0.24600
C528        C  0.64211908  0.61514359  0.95260654    -0.23500
C529        C  0.62593464  0.63319001  0.93244789     0.19600
C530        C  0.64415271  0.64072112  0.90985552     0.24600
C531        C  0.67865556  0.62976038  0.90688887    -0.23400
C532        C  0.69461752  0.61130724  0.92697952     0.19500
F533        F  0.72803138  0.60073567  0.92495136    -0.13400
F534        F  0.69284420  0.58648729  0.96865907    -0.15700
F535        F  0.62776254  0.65790513  0.89063095    -0.15700
F536        F  0.59272060  0.64414869  0.93487462    -0.13400
C537        C  0.50935301  0.56441744  0.48387174     0.24600
C538        C  0.48030246  0.55666197  0.49916090    -0.23500
C539        C  0.48144923  0.52700584  0.51485690     0.19600
C540        C  0.51075450  0.50565273  0.51518401     0.24600
C541        C  0.53963593  0.51322365  0.49973145    -0.23400
C542        C  0.53863626  0.54298041  0.48414918     0.19500
F543        F  0.56642309  0.55179411  0.46958275    -0.13400
F544        F  0.50976743  0.59327340  0.46908745    -0.15700
F545        F  0.51040716  0.47685657  0.53002928    -0.15700
F546        F  0.45365583  0.51797356  0.52933047    -0.13400
C547        C  0.33447473  0.61147011  0.57344322     0.24600
C548        C  0.34766001  0.63693796  0.59016681    -0.23500
C549        C  0.37923315  0.65336443  0.58392144     0.19600
C550        C  0.39762833  0.64371570  0.56192143     0.24600
C551        C  0.38463705  0.61779809  0.54573467    -0.23400
C552        C  0.35284448  0.60196405  0.55157730     0.19500
F553        F  0.33962200  0.57706352  0.53605211    -0.13400
F554        F  0.30334202  0.59611396  0.57790283    -0.15700
F555        F  0.42790535  0.65995580  0.55620497    -0.15700
F556        F  0.39283110  0.67805185  0.59940018    -0.13400
C557        C  0.51535951  0.57039199  0.01580913     0.24600
C558        C  0.54555201  0.55980555  0.00300809    -0.23500
C559        C  0.54575014  0.52715220  0.99131834     0.19600
C560        C  0.51621471  0.50592718  0.99187470     0.24600
C561        C  0.48584075  0.51673154  0.00425386    -0.23400
C562        C  0.48580485  0.54908115  0.01642022     0.19500
F563        F  0.45676400  0.56052687  0.02823444    -0.13400
F564        F  0.51414297  0.60181389  0.02711863    -0.15700
F565        F  0.51751498  0.47438782  0.98075822    -0.15700
F566        F  0.57492871  0.51538894  0.97987214    -0.13400
C567        C  0.39238955  0.42746000  0.91317993     0.24600
C568        C  0.35741270  0.43645892  0.90915721    -0.23500
C569        C  0.33988211  0.45437345  0.92856078     0.19600
C570        C  0.35677740  0.46294822  0.95147262     0.24600
C571        C  0.39177262  0.45418715  0.95551383    -0.23400
C572        C  0.40949653  0.43646375  0.93609463     0.19500
F573        F  0.44319844  0.42740045  0.93947720    -0.13400
F574        F  0.41033305  0.41093072  0.89462554    -0.15700
F575        F  0.33899487  0.48047257  0.96962186    -0.15700
F576        F  0.30602672  0.46313919  0.92557834    -0.13400
C577        C  0.34858008  0.60515275  0.44733541     0.24600
C578        C  0.38316396  0.61604465  0.45075295    -0.23500
C579        C  0.39858964  0.63684231  0.43181314     0.19600
C580        C  0.37972375  0.64657338  0.40983646     0.24600
C581        C  0.34528499  0.63512869  0.40622624    -0.23400
C582        C  0.32992408  0.61443872  0.42532134     0.19500
F583        F  0.29644386  0.60375919  0.42299385    -0.13400
F584        F  0.33283287  0.58527401  0.46537224    -0.15700
F585        F  0.39546179  0.66642876  0.39181917    -0.15700
F586        F  0.43165687  0.64838146  0.43489142    -0.13400
C587        C  0.40650234  0.43929703  0.07151998     0.24600
C588        C  0.38915314  0.45594512  0.05117384    -0.23500
C589        C  0.35360039  0.46322671  0.05368282     0.19600
C590        C  0.33575965  0.45406206  0.07596665     0.24600
C591        C  0.35296422  0.43724015  0.09626878    -0.23400
C592        C  0.38849313  0.42979149  0.09381392     0.19500
F593        F  0.40601159  0.41424353  0.11327365    -0.13400
F594        F  0.44074070  0.43169937  0.06962202    -0.15700
F595        F  0.30134481  0.46110166  0.07746873    -0.15700
F596        F  0.33615642  0.47978712  0.03463805    -0.13400
C597        C  0.02486599  0.06237472  0.51747251     0.24600
C598        C  0.05399204  0.05395078  0.50253910    -0.23500
C599        C  0.05357170  0.02276616  0.48881135     0.19600
C600        C  0.02461046  0.00083388  0.48967569     0.24600
C601        C  0.99539846  0.00941636  0.50436524    -0.23400
C602        C  0.99592975  0.04031971  0.51841627     0.19500
F603        F  0.96797311  0.04973484  0.53244776    -0.13400
F604        F  0.02401405  0.09245298  0.53066250    -0.15700
F605        F  0.02542474  0.97068980  0.47656434    -0.15700
F606        F  0.08167452  0.01293761  0.47511550    -0.13400
C607        C  0.18243595  0.11130921  0.55343074     0.24600
C608        C  0.14753601  0.11989793  0.54888973    -0.23500
C609        C  0.12954970  0.13894251  0.56744899     0.19600
C610        C  0.14621560  0.14905983  0.59023680     0.24600
C611        C  0.18087352  0.13967869  0.59496196    -0.23400
C612        C  0.19886855  0.12099736  0.57623069     0.19500
F613        F  0.23254456  0.11205692  0.58002267    -0.13400
F614        F  0.20037968  0.09254095  0.53607213    -0.15700
F615        F  0.12806819  0.16666049  0.60812084    -0.15700
F616        F  0.09591064  0.14780875  0.56345077    -0.13400
C617        C  0.18485485  0.10501400  0.45082516     0.24600
C618        C  0.14976219  0.11401276  0.45361583    -0.23500
C619        C  0.13323929  0.13237698  0.43376200     0.19600
C620        C  0.15169504  0.14209265  0.41170913     0.24600
C621        C  0.18683282  0.13306643  0.40895972    -0.23400
C622        C  0.20314104  0.11433805  0.42875368     0.19500
F623        F  0.23713890  0.10564644  0.42701434    -0.13400
F624        F  0.20142380  0.08686086  0.46949108    -0.15700
F625        F  0.13493736  0.15948657  0.39276711    -0.15700
F626        F  0.09943858  0.14153636  0.43597253    -0.13400
C627        C  0.00995653  0.00389048  0.98785413     0.24600
C628        C  0.04020662  0.01337228  0.00142722    -0.23500
C629        C  0.04067441  0.04505402  0.01454507     0.19600
C630        C  0.01168513  0.06677942  0.01397540     0.24600
C631        C  0.98160511  0.05744090  0.00019049    -0.23400
C632        C  0.98103204  0.02567964  0.98721024     0.19500
F633        F  0.95207909  0.01529787  0.97438472    -0.13400
F634        F  0.00812077  0.97312176  0.97560238    -0.15700
F635        F  0.01339710  0.09750350  0.02629105    -0.15700
F636        F  0.06968397  0.05559925  0.02721942    -0.13400
C637        C  0.17256340  0.96842296  0.05176439     0.24600
C638        C  0.13889025  0.95539310  0.04778028    -0.23500
C639        C  0.12365730  0.93482085  0.06694283     0.19600
C640        C  0.14202548  0.92689880  0.08951777     0.24600
C641        C  0.17581249  0.93989514  0.09353750    -0.23400
C642        C  0.19073862  0.96099399  0.07444528     0.19500
F643        F  0.22333321  0.97386610  0.07741160    -0.13400
F644        F  0.18769589  0.98883452  0.03377876    -0.15700
F645        F  0.12634503  0.90732812  0.10773823    -0.15700
F646        F  0.09110775  0.92200008  0.06361051    -0.13400
C647        C  0.14259916  0.91553878  0.94752544     0.24600
C648        C  0.13079960  0.94939665  0.95166636    -0.23500
C649        C  0.13424585  0.97363672  0.93170662     0.19600
C650        C  0.14989706  0.96460902  0.90854574     0.24600
C651        C  0.16307299  0.93117506  0.90474193    -0.23400
C652        C  0.15846910  0.90650502  0.92429942     0.19500
F653        F  0.17057524  0.87398639  0.92142970    -0.13400
F654        F  0.13880111  0.89111783  0.96600429    -0.15700
F655        F  0.15202081  0.98882911  0.88977481    -0.15700
F656        F  0.12370814  0.00666840  0.93492568    -0.13400
loop_ 
_geom_bond_atom_site_label_1 
_geom_bond_atom_site_label_2 
_geom_bond_distance 
_geom_bond_site_symmetry_2 
_ccdc_geom_bond_type 
C1            C2   1.406   1_554  A
C1            C6   1.406       .  A
C1          C638   1.487       .  S
C2            C3   1.408       .  A
C2            H7   1.084       .  S
C3            C4   1.409       .  A
C3          C648   1.495       .  S
C4            C5   1.408   1_556  A
C4            H8   1.083       .  S
C5            C6   1.408       .  A
C5          C628   1.493   1_565  S
C6            H9   1.083       .  S
N10          N11   1.324       .  A
N10          C14   1.348       .  A
N10         Cu18   2.100       .  S
N11          C12   1.347       .  A
N11         Cu17   2.078       .  S
C12          C13   1.383       .  A
C12          H15   1.082       .  S
C13          C14   1.387       .  A
C13         C118   1.479       .  S
C14          H16   1.082       .  S
Cu17         N20   2.077       .  S
Cu18         N28   2.099       .  S
Cu19         N21   2.066       .  S
Cu19         N27   2.066       .  S
N20          N21   1.321       .  A
N20          C24   1.345       .  A
N21          C22   1.345       .  A
C22          C23   1.383       .  A
C22          H25   1.082       .  S
C23          C24   1.385       .  A
C23          C47   1.472       .  S
C24          H26   1.082       .  S
N27          N28   1.322       .  A
N27          C31   1.342       .  A
N28          C29   1.351       .  A
C29          C30   1.391       .  A
C29          H32   1.082       .  S
C30          C31   1.382       .  A
C30         C621   1.486       .  S
C31          H33   1.082       .  S
N34          N35   1.325       .  A
N34          C38   1.351       .  A
N34         Cu42   2.106       .  S
N35          C36   1.346       .  A
N35         Cu41   2.081       .  S
C36          C37   1.383       .  A
C36          H39   1.082       .  S
C37          C38   1.389       .  A
C37         C142   1.482       .  S
C38          H40   1.082       .  S
Cu41         N44   2.080       .  S
Cu42         N52   2.106       .  S
Cu43         N45   2.063       .  S
Cu43         N51   2.065       .  S
N44          N45   1.321       .  A
N44          C48   1.347       .  A
N45          C46   1.343   1_565  A
C46          C47   1.381       .  A
C46          H49   1.082       .  S
C47          C48   1.386   1_545  A
C48          H50   1.082       .  S
N51          N52   1.322       .  A
N51          C55   1.343       .  A
N52          C53   1.351       .  A
C53          C54   1.393       .  A
C53          H56   1.082       .  S
C54          C55   1.383       .  A
C54         C641   1.490       .  S
C55          H57   1.082       .  S
N58          N59   1.325       .  A
N58          C62   1.347       .  A
N58         Cu66   2.100       .  S
N59          C60   1.347       .  A
N59         Cu65   2.078       .  S
C60          C61   1.382       .  A
C60          H63   1.082       .  S
C61          C62   1.387       .  A
C61         C175   1.477       .  S
C62          H64   1.082       .  S
Cu65         N68   2.077       .  S
Cu66         N76   2.098       .  S
Cu67         N69   2.053       .  S
Cu67         N75   2.053       .  S
N68          N69   1.320       .  A
N68          C72   1.346       .  A
N69          C70   1.342       .  A
C70          C71   1.380       .  A
C70          H73   1.082       .  S
C71          C72   1.386       .  A
C71          C95   1.468       .  S
C72          H74   1.082       .  S
N75          N76   1.321       .  A
N75          C79   1.339       .  A
N76          C77   1.352       .  A
C77          C78   1.391       .  A
C77          H80   1.082       .  S
C78          C79   1.378       .  A
C78         C611   1.480       .  S
C79          H81   1.082       .  S
N82          N83   1.325       .  A
N82          C86   1.352       .  A
N82         Cu90   2.118       .  S
N83          C84   1.346       .  A
N83         Cu89   2.076       .  S
C84          C85   1.381       .  A
C84          H87   1.082       .  S
C85          C86   1.392       .  A
C85         C199   1.484       .  S
C86          H88   1.082       .  S
Cu89         N92   2.075       .  S
Cu90        N100   2.117       .  S
Cu91         N93   2.057       .  S
Cu91         N99   2.059       .  S
N92          N93   1.320       .  A
N92          C96   1.345       .  A
N93          C94   1.343   1_565  A
C94          C95   1.380       .  A
C94          H97   1.082       .  S
C95          C96   1.385   1_545  A
C96          H98   1.082       .  S
N99         N100   1.322       .  A
N99         C103   1.341       .  A
N100        C101   1.354       .  A
C101        C102   1.396       .  A
C101        H104   1.081       .  S
C102        C103   1.382       .  A
C102        C651   1.494       .  S
C103        H105   1.082       .  S
C106        C107   1.408       .  A
C106        C111   1.401       .  A
C106        C618   1.487       .  S
C107        C108   1.413       .  A
C107        H112   1.083       .  S
C108        C109   1.409       .  A
C108        C598   1.493       .  S
C109        C110   1.405       .  A
C109        H113   1.084       .  S
C110        C111   1.401       .  A
C110        C608   1.484       .  S
C111        H114   1.084       .  S
N115        N116   1.325       .  A
N115        C119   1.349       .  A
N115       Cu123   2.097       .  S
N116        C117   1.346       .  A
N116       Cu122   2.084       .  S
C117        C118   1.383       .  A
C117        H120   1.082       .  S
C118        C119   1.387       .  A
C119        H121   1.082       .  S
Cu122       N125   2.083       .  S
Cu123       N133   2.096       .  S
Cu124       N126   2.061       .  S
Cu124       N132   2.062       .  S
N125        N126   1.321       .  A
N125        C129   1.347       .  A
N126        C127   1.344       .  A
C127        C128   1.381       .  A
C127        H130   1.082       .  S
C128        C129   1.388       .  A
C128        C152   1.474       .  S
C129        H131   1.082       .  S
N132        N133   1.322       .  A
N132        C136   1.341       .  A
N133        C134   1.351       .  A
C134        C135   1.390       .  A
C134        H137   1.082       .  S
C135        C136   1.381       .  A
C135        C591   1.483       .  S
C136        H138   1.082       .  S
N139        N140   1.325       .  A
N139        C143   1.348       .  A
N139       Cu147   2.101       .  S
N140        C141   1.348       .  A
N140       Cu146   2.087       .  S
C141        C142   1.384       .  A
C141        H144   1.082       .  S
C142        C143   1.388       .  A
C143        H145   1.082       .  S
Cu146       N149   2.085       .  S
Cu147       N157   2.100       .  S
Cu148       N150   2.064       .  S
Cu148       N156   2.065       .  S
N149        N150   1.321       .  A
N149        C153   1.347       .  A
N150        C151   1.344       .  A
C151        C152   1.381       .  A
C151        H154   1.082       .  S
C152        C153   1.387       .  A
C153        H155   1.082       .  S
N156        N157   1.322       .  A
N156        C160   1.342       .  A
N157        C158   1.351       .  A
C158        C159   1.392       .  A
C158        H161   1.082       .  S
C159        C160   1.383       .  A
C159        C581   1.488       .  S
C160        H162   1.082       .  S
C163        C164   1.407       .  A
C163        C168   1.403   1_556  A
C163        C571   1.489       .  S
C164        C165   1.410   1_556  A
C164        H169   1.084       .  S
C165        C166   1.409       .  A
C165        C561   1.491       .  S
C166        C167   1.407       .  A
C166        H170   1.084       .  S
C167        C168   1.404       .  A
C167        C588   1.488       .  S
C168        H171   1.084       .  S
N172        N173   1.324       .  A
N172        C176   1.350       .  A
N172       Cu180   2.104       .  S
N173        C174   1.344       .  A
N173       Cu179   2.068       .  S
C174        C175   1.380       .  A
C174        H177   1.082       .  S
C175        C176   1.389       .  A
C176        H178   1.082       .  S
Cu179       N182   2.068       .  S
Cu180       N190   2.104       .  S
Cu181       N183   2.064       .  S
Cu181       N189   2.066       .  S
N182        N183   1.320       .  A
N182        C186   1.345       .  A
N183        C184   1.344       .  A
C184        C185   1.382       .  A
C184        H187   1.082       .  S
C185        C186   1.384       .  A
C185        C209   1.469       .  S
C186        H188   1.082       .  S
N189        N190   1.323       .  A
N189        C193   1.342       .  A
N190        C191   1.352       .  A
C191        C192   1.391       .  A
C191        H194   1.082       .  S
C192        C193   1.382       .  A
C192        C568   1.487       .  S
C193        H195   1.082       .  S
N196        N197   1.325       .  A
N196        C200   1.351       .  A
N196       Cu204   2.113       .  S
N197        C198   1.347       .  A
N197       Cu203   2.077       .  S
C198        C199   1.382       .  A
C198        H201   1.082       .  S
C199        C200   1.391       .  A
C200        H202   1.082       .  S
Cu203       N206   2.076       .  S
Cu204       N214   2.111       .  S
Cu205       N207   2.056       .  S
Cu205       N213   2.057       .  S
N206        N207   1.320       .  A
N206        C210   1.345       .  A
N207        C208   1.344       .  A
C208        C209   1.382       .  A
C208        H211   1.082       .  S
C209        C210   1.385       .  A
C210        H212   1.082       .  S
N213        N214   1.322       .  A
N213        C217   1.339       .  A
N214        C215   1.353       .  A
C215        C216   1.395       .  A
C215        H218   1.082       .  S
C216        C217   1.381       .  A
C216        C548   1.490       .  S
C217        H219   1.082       .  S
C220        C221   1.398       .  A
C220        C225   1.405       .  A
C220        C551   1.479       .  S
C221        C222   1.400       .  A
C221        H226   1.085       .  S
C222        C223   1.410       .  A
C222        C578   1.487       .  S
C223        C224   1.415       .  A
C223        H227   1.083       .  S
C224        C225   1.412       .  A
C224        C538   1.498       .  S
C225        H228   1.083       .  S
C229        C230   1.401   1_556  A
C229        C234   1.406       .  A
C229        C528   1.485       .  S
C230        C231   1.402       .  A
C230        H235   1.084   1_554  S
C231        C232   1.407       .  A
C231        C518   1.484       .  S
C232        C233   1.410       .  A
C232        H236   1.084       .  S
C233        C234   1.411   1_554  A
C233        C558   1.492       .  S
C234        H237   1.084       .  S
N238        N239   1.325       .  A
N238        C242   1.349       .  A
N238       Cu246   2.103       .  S
N239        C240   1.345       .  A
N239       Cu245   2.074       .  S
C240        C241   1.380       .  A
C240        H243   1.082       .  S
C241        C242   1.388       .  A
C241        C355   1.477       .  S
C242        H244   1.082       .  S
Cu245       N248   2.072       .  S
Cu246       N256   2.102       .  S
Cu247       N249   2.054       .  S
Cu247       N255   2.055       .  S
N248        N249   1.320       .  A
N248        C252   1.345       .  A
N249        C250   1.343       .  A
C250        C251   1.380       .  A
C250        H253   1.082       .  S
C251        C252   1.385       .  A
C251        C275   1.467       .  S
C252        H254   1.082       .  S
N255        N256   1.321       .  A
N255        C259   1.339       .  A
N256        C257   1.353       .  A
C257        C258   1.395       .  A
C257        H260   1.081       .  S
C258        C259   1.381       .  A
C258        C508   1.489       .  S
C259        H261   1.081       .  S
N262        N263   1.325       .  A
N262        C266   1.348       .  A
N262       Cu270   2.103       .  S
N263        C264   1.346       .  A
N263       Cu269   2.072       .  S
C264        C265   1.381       .  A
C264        H267   1.082       .  S
C265        C266   1.388       .  A
C265        C379   1.477       .  S
C266        H268   1.082       .  S
Cu269       N272   2.071       .  S
Cu270       N280   2.101       .  S
Cu271       N273   2.054       .  S
Cu271       N279   2.056       .  S
N272        N273   1.320       .  A
N272        C276   1.345       .  A
N273        C274   1.343       .  A
C274        C275   1.380       .  A
C274        H277   1.082       .  S
C275        C276   1.385       .  A
C276        H278   1.082       .  S
N279        N280   1.322       .  A
N279        C283   1.339       .  A
N280        C281   1.353       .  A
C281        C282   1.392       .  A
C281        H284   1.082       .  S
C282        C283   1.380       .  A
C282        C521   1.484       .  S
C283        H285   1.082       .  S
N286        N287   1.325       .  A
N286        C290   1.352       .  A
N286       Cu294   2.112       .  S
N287        C288   1.346       .  A
N287       Cu293   2.082       .  S
C288        C289   1.382       .  A
C288        H291   1.082       .  S
C289        C290   1.390       .  A
C289        C403   1.483       .  S
C290        H292   1.082       .  S
Cu293       N296   2.081       .  S
Cu294       N304   2.110       .  S
Cu295       N297   2.061       .  S
Cu295       N303   2.062       .  S
N296        N297   1.320       .  A
N296        C300   1.348       .  A
N297        C298   1.343       .  A
C298        C299   1.381       .  A
C298        H301   1.082       .  S
C299        C300   1.387       .  A
C299        C323   1.472       .  S
C300        H302   1.082       .  S
N303        N304   1.322       .  A
N303        C307   1.342       .  A
N304        C305   1.353       .  A
C305        C306   1.394       .  A
C305        H308   1.082       .  S
C306        C307   1.382       .  A
C306        C498   1.489       .  S
C307        H309   1.082       .  S
N310        N311   1.325       .  A
N310        C314   1.348       .  A
N310       Cu318   2.100       .  S
N311        C312   1.347       .  A
N311       Cu317   2.082       .  S
C312        C313   1.383       .  A
C312        H315   1.082       .  S
C313        C314   1.388       .  A
C313        C427   1.480       .  S
C314        H316   1.082       .  S
Cu317       N320   2.081       .  S
Cu318       N328   2.099       .  S
Cu319       N321   2.062       .  S
Cu319       N327   2.063       .  S
N320        N321   1.321       .  A
N320        C324   1.346       .  A
N321        C322   1.345       .  A
C322        C323   1.382       .  A
C322        H325   1.082       .  S
C323        C324   1.386       .  A
C324        H326   1.082       .  S
N327        N328   1.322       .  A
N327        C331   1.342       .  A
N328        C329   1.351       .  A
C329        C330   1.391       .  A
C329        H332   1.082       .  S
C330        C331   1.381       .  A
C330        C531   1.484       .  S
C331        H333   1.082       .  S
C334        C335   1.410       .  A
C334        C339   1.405       .  A
C334        C511   1.495       .  S
C335        C336   1.408       .  A
C335        H340   1.083       .  S
C336        C337   1.410       .  A
C336        C541   1.496       .  S
C337        C338   1.408       .  A
C337        H341   1.083       .  S
C338        C339   1.403       .  A
C338        C501   1.486       .  S
C339        H342   1.084       .  S
C343        C344   1.405       .  A
C343        C348   1.401       .  A
C343        C491   1.482       .  S
C344        C345   1.410       .  A
C344        H349   1.084       .  S
C345        C346   1.410   1_556  A
C345        C631   1.492   1_556  S
C346        C347   1.407       .  A
C346        H350   1.084       .  S
C347        C348   1.403   1_554  A
C347        C481   1.485       .  S
C348        H351   1.084       .  S
N352        N353   1.324       .  A
N352        C356   1.348       .  A
N352       Cu360   2.100       .  S
N353        C354   1.346       .  A
N353       Cu359   2.071       .  S
C354        C355   1.381       .  A
C354        H357   1.082       .  S
C355        C356   1.387       .  A
C356        H358   1.082       .  S
Cu359       N362   2.069       .  S
Cu360       N370   2.099       .  S
Cu361       N363   2.057       .  S
Cu361       N369   2.058       .  S
N362        N363   1.320       .  A
N362        C366   1.344       .  A
N363        C364   1.342       .  A
C364        C365   1.380       .  A
C364        H367   1.082       .  S
C365        C366   1.384       .  A
C365        C389   1.466       .  S
C366        H368   1.082       .  S
N369        N370   1.322       .  A
N369        C373   1.340       .  A
N370        C371   1.352       .  A
C371        C372   1.391       .  A
C371        H374   1.082       .  S
C372        C373   1.381       .  A
C372        C478   1.484       .  S
C373        H375   1.082       .  S
N376        N377   1.324       .  A
N376        C380   1.350       .  A
N376       Cu384   2.106       .  S
N377        C378   1.343       .  A
N377       Cu383   2.064       .  S
C378        C379   1.379       .  A
C378        H381   1.082       .  S
C379        C380   1.390       .  A
C380        H382   1.082       .  S
Cu383       N386   2.064       .  S
Cu384       N394   2.105       .  S
Cu385       N387   2.056       .  S
Cu385       N393   2.057       .  S
N386        N387   1.319       .  A
N386        C390   1.344       .  A
N387        C388   1.343   1_565  A
C388        C389   1.381       .  A
C388        H391   1.082       .  S
C389        C390   1.384   1_545  A
C390        H392   1.082       .  S
N393        N394   1.323       .  A
N393        C397   1.341       .  A
N394        C395   1.352       .  A
C395        C396   1.391       .  A
C395        H398   1.082       .  S
C396        C397   1.379       .  A
C396        C471   1.482       .  S
C397        H399   1.082       .  S
N400        N401   1.324       .  A
N400        C404   1.348       .  A
N400       Cu408   2.103       .  S
N401        C402   1.348       .  A
N401       Cu407   2.081       .  S
C402        C403   1.384       .  A
C402        H405   1.082       .  S
C403        C404   1.388       .  A
C404        H406   1.082       .  S
Cu407       N410   2.080       .  S
Cu408       N418   2.102       .  S
Cu409       N411   2.063       .  S
Cu409       N417   2.064       .  S
N410        N411   1.321       .  A
N410        C414   1.345       .  A
N411        C412   1.345       .  A
C412        C413   1.382       .  A
C412        H415   1.082       .  S
C413        C414   1.385       .  A
C413        C437   1.471       .  S
C414        H416   1.082       .  S
N417        N418   1.322       .  A
N417        C421   1.342       .  A
N418        C419   1.351       .  A
C419        C420   1.393       .  A
C419        H422   1.082       .  S
C420        C421   1.384       .  A
C420        C488   1.491       .  S
C421        H423   1.082       .  S
N424        N425   1.325       .  A
N424        C428   1.350       .  A
N424       Cu432   2.103       .  S
N425        C426   1.345       .  A
N425       Cu431   2.078       .  S
C426        C427   1.382       .  A
C426        H429   1.082       .  S
C427        C428   1.389       .  A
C428        H430   1.082       .  S
Cu431       N434   2.077       .  S
Cu432       N442   2.101       .  S
Cu433       N435   2.059       .  S
Cu433       N441   2.060       .  S
N434        N435   1.320       .  A
N434        C438   1.346       .  A
N435        C436   1.343   1_565  A
C436        C437   1.381       .  A
C436        H439   1.082       .  S
C437        C438   1.386   1_545  A
C438        H440   1.082       .  S
N441        N442   1.323       .  A
N441        C445   1.341       .  A
N442        C443   1.351       .  A
C443        C444   1.390       .  A
C443        H446   1.082       .  S
C444        C445   1.379       .  A
C444        C458   1.481       .  S
C445        H447   1.082       .  S
C448        C449   1.409       .  A
C448        C453   1.405       .  A
C448        C461   1.490       .  S
C449        C450   1.409       .  A
C449        H454   1.083       .  S
C450        C451   1.407       .  A
C450        C601   1.490   1_565  S
C451        C452   1.403       .  A
C451        H455   1.084       .  S
C452        C453   1.403       .  A
C452        C468   1.484       .  S
C453        H456   1.084       .  S
C457        C458   1.406       .  A
C457        C462   1.397       .  A
C457        F464   1.358       .  S
C458        C459   1.405       .  A
C459        C460   1.404       .  A
C459        F466   1.357       .  S
C460        C461   1.410       .  A
C460        F465   1.357       .  S
C461        C462   1.408       .  A
C462        F463   1.358       .  S
C467        C468   1.406       .  A
C467        C472   1.398       .  A
C467        F474   1.358       .  S
C468        C469   1.407       .  A
C469        C470   1.403       .  A
C469        F476   1.358       .  S
C470        C471   1.406       .  A
C470        F475   1.357       .  S
C471        C472   1.408       .  A
C472        F473   1.358       .  S
C477        C478   1.407       .  A
C477        C482   1.396       .  A
C477        F484   1.358       .  S
C478        C479   1.408       .  A
C479        C480   1.406       .  A
C479        F486   1.357       .  S
C480        C481   1.407       .  A
C480        F485   1.358       .  S
C481        C482   1.405       .  A
C482        F483   1.358       .  S
C487        C488   1.410       .  A
C487        C492   1.405       .  A
C487        F494   1.357       .  S
C488        C489   1.411       .  A
C489        C490   1.399       .  A
C489        F496   1.357       .  S
C490        C491   1.403       .  A
C490        F495   1.358       .  S
C491        C492   1.405       .  A
C492        F493   1.357       .  S
C497        C498   1.408       .  A
C497        C502   1.406       .  A
C497        F504   1.357       .  S
C498        C499   1.410       .  A
C499        C500   1.400       .  A
C499        F506   1.358       .  S
C500        C501   1.405       .  A
C500        F505   1.358       .  S
C501        C502   1.406       .  A
C502        F503   1.357       .  S
C507        C508   1.407       .  A
C507        C512   1.405       .  A
C507        F514   1.357       .  S
C508        C509   1.410       .  A
C509        C510   1.397       .  A
C509        F516   1.357       .  S
C510        C511   1.407       .  A
C510        F515   1.358       .  S
C511        C512   1.412       .  A
C512        F513   1.358       .  S
C517        C518   1.405       .  A
C517        C522   1.395       .  A
C517        F524   1.358       .  S
C518        C519   1.407       .  A
C519        C520   1.406       .  A
C519        F526   1.357       .  S
C520        C521   1.408       .  A
C520        F525   1.357       .  S
C521        C522   1.408       .  A
C522        F523   1.358       .  S
C527        C528   1.406       .  A
C527        C532   1.399       .  A
C527        F534   1.358       .  S
C528        C529   1.406       .  A
C529        C530   1.404       .  A
C529        F536   1.357       .  S
C530        C531   1.407       .  A
C530        F535   1.357       .  S
C531        C532   1.408       .  A
C532        F533   1.358       .  S
C537        C538   1.409       .  A
C537        C542   1.405       .  A
C537        F544   1.358       .  S
C538        C539   1.411       .  A
C539        C540   1.404       .  A
C539        F546   1.358       .  S
C540        C541   1.407       .  A
C540        F545   1.358       .  S
C541        C542   1.411       .  A
C542        F543   1.358       .  S
C547        C548   1.412       .  A
C547        C552   1.397       .  A
C547        F554   1.358       .  S
C548        C549   1.410       .  A
C549        C550   1.405       .  A
C549        F556   1.357       .  S
C550        C551   1.404       .  A
C550        F555   1.357       .  S
C551        C552   1.402       .  A
C552        F553   1.359       .  S
C557        C558   1.408       .  A
C557        C562   1.405       .  A
C557        F564   1.358       .  S
C558        C559   1.408   1_554  A
C559        C560   1.402       .  A
C559        F566   1.358       .  S
C560        C561   1.406   1_556  A
C560        F565   1.358       .  S
C561        C562   1.409       .  A
C562        F563   1.358       .  S
C567        C568   1.408       .  A
C567        C572   1.406       .  A
C567        F574   1.357       .  S
C568        C569   1.408       .  A
C569        C570   1.398       .  A
C569        F576   1.358       .  S
C570        C571   1.407       .  A
C570        F575   1.358       .  S
C571        C572   1.408       .  A
C572        F573   1.358       .  S
C577        C578   1.407       .  A
C577        C582   1.399       .  A
C577        F584   1.358       .  S
C578        C579   1.406       .  A
C579        C580   1.406       .  A
C579        F586   1.357       .  S
C580        C581   1.409       .  A
C580        F585   1.357       .  S
C581        C582   1.408       .  A
C582        F583   1.358       .  S
C587        C588   1.408       .  A
C587        C592   1.405       .  A
C587        F594   1.357       .  S
C588        C589   1.407       .  A
C589        C590   1.398       .  A
C589        F596   1.358       .  S
C590        C591   1.407       .  A
C590        F595   1.358       .  S
C591        C592   1.407       .  A
C592        F593   1.357       .  S
C597        C598   1.410       .  A
C597        C602   1.403   1_455  A
C597        F604   1.358       .  S
C598        C599   1.409       .  A
C599        C600   1.401       .  A
C599        F606   1.358       .  S
C600        C601   1.407   1_455  A
C600        F605   1.358   1_545  S
C601        C602   1.408       .  A
C602        F603   1.358       .  S
C607        C608   1.406       .  A
C607        C612   1.396       .  A
C607        F614   1.358       .  S
C608        C609   1.408       .  A
C609        C610   1.404       .  A
C609        F616   1.358       .  S
C610        C611   1.406       .  A
C610        F615   1.357       .  S
C611        C612   1.407       .  A
C612        F613   1.358       .  S
C617        C618   1.407       .  A
C617        C622   1.399       .  A
C617        F624   1.358       .  S
C618        C619   1.406       .  A
C619        C620   1.405       .  A
C619        F626   1.357       .  S
C620        C621   1.408       .  A
C620        F625   1.357       .  S
C621        C622   1.408       .  A
C622        F623   1.358       .  S
C627        C628   1.408   1_556  A
C627        C632   1.403   1_455  A
C627        F634   1.358   1_545  S
C628        C629   1.409       .  A
C629        C630   1.403       .  A
C629        F636   1.358       .  S
C630        C631   1.407   1_455  A
C630        F635   1.358       .  S
C631        C632   1.409   1_554  A
C632        F633   1.358       .  S
C637        C638   1.405       .  A
C637        C642   1.401       .  A
C637        F644   1.358       .  S
C638        C639   1.406       .  A
C639        C640   1.405       .  A
C639        F646   1.357       .  S
C640        C641   1.409       .  A
C640        F645   1.357       .  S
C641        C642   1.410       .  A
C642        F643   1.358       .  S
C647        C648   1.411       .  A
C647        C652   1.406       .  A
C647        F654   1.358       .  S
C648        C649   1.407       .  A
C649        C650   1.400       .  A
C649        F656   1.358   1_565  S
C650        C651   1.411       .  A
C650        F655   1.358       .  S
C651        C652   1.408       .  A
C652        F653   1.357       .  S
