geometry optimzed in LAMMPS
_audit_creation_date              2020-11-30 
_audit_creation_method            'lammps2cif' 
_symmetry_space_group_name_H-M    'P1' 
_symmetry_Int_Tables_number       1 
_symmetry_cell_setting            triclinic 
loop_ 
_symmetry_equiv_pos_as_xyz 
  x,y,z 
_cell_length_a                    28.12285761 
_cell_length_b                    27.911304640298194 
_cell_length_c                    27.875994390477715 
_cell_angle_alpha                 106.4674836557832 
_cell_angle_beta                  99.10249085706826 
_cell_angle_gamma                 91.35064683927992 
loop_ 
_atom_site_label 
_atom_site_type_symbol 
_atom_site_fract_x 
_atom_site_fract_y 
_atom_site_fract_z 
_atom_site_charge 
C1          C  0.64411667  0.45162997  0.89930714     0.43300
N2          N  0.56709363  0.45277174  0.90059011     0.02200
C3          C  0.46586660  0.58342325  0.10371399    -0.05600
H4          H  0.60229632  0.42699880  0.12064336     0.07700
C5          C  0.47046080  0.31149182  0.01759353    -0.06000
Co6        Co  0.54973948  0.52628782  0.99543241     0.74200
N7          N  0.56965762  0.47440086  0.07641751    -0.25200
Co8        Co  0.49309743  0.46809653  0.06961790     0.74100
C9          C  0.50193465  0.31422641  0.06462180     0.43500
N10         N  0.46862732  0.34461651  0.90791710     0.01900
N11         N  0.49430477  0.38909109  0.05809032     0.02000
N12         N  0.50340346  0.61138583  0.05028143    -0.46000
H13         H  0.66205913  0.51496568  0.97341318     0.07700
N14         N  0.58868574  0.49940578  0.04947051     0.02200
N15         N  0.41631755  0.46058994  0.05588100     0.02000
C16         C  0.34060177  0.46955529  0.05747972     0.43600
N17         N  0.49416477  0.36573291  0.88245327    -0.24600
C18         C  0.50560321  0.60026872  0.94044956    -0.05500
N19         N  0.59980314  0.42935461  0.87402783    -0.45700
N20         N  0.38578338  0.48788852  0.08231531    -0.46000
C21         C  0.47439425  0.59699234  0.89309093     0.43400
N22         N  0.51160406  0.56479532  0.04709881     0.02200
N23         N  0.41177968  0.43693700  0.88168798    -0.24600
N24         N  0.58813826  0.48706212  0.94207506    -0.25100
N25         N  0.39217523  0.40862004  0.90507049     0.01900
H26         H  0.37963001  0.49202324  0.84738587     0.07800
H27         H  0.31772669  0.40629932  0.98394528     0.07800
N28         N  0.49003636  0.54611670  0.07715817    -0.25200
N29         N  0.46865306  0.35887404  0.01628431    -0.24800
N30         N  0.48636733  0.52219908  0.89812008     0.02200
C31         C  0.64995884  0.46782734  0.08166783     0.43600
C32         C  0.52525872  0.33199911  0.86303763    -0.06000
N33         N  0.39340504  0.42707243  0.01448793    -0.24800
H34         H  0.45226428  0.27897901  0.98867373     0.07800
N35         N  0.63546023  0.49671294  0.05218036    -0.46000
H36         H  0.55378847  0.33885880  0.84351106     0.07800
C37         C  0.33086439  0.44448455  0.87888302     0.43500
C38         C  0.63588784  0.49013900  0.94357887    -0.05500
Co39       Co  0.48931524  0.44344403  0.88779730     0.73800
N40         N  0.47951179  0.29882403  0.90638885    -0.45700
C41         C  0.47408902  0.62617311  0.08372896     0.43700
N42         N  0.46426440  0.54737633  0.86780073    -0.45700
Co43       Co  0.43042520  0.38421206  0.96034999     0.73900
C44         C  0.34567443  0.42890750  0.01335194    -0.06100
C45         C  0.60623057  0.45273941  0.09871533    -0.05600
N46         N  0.51037410  0.55273765  0.94063359    -0.25100
N47         N  0.51588792  0.36352796  0.08822905    -0.45900
H48         H  0.44306882  0.58013086  0.13058961     0.07700
C49         C  0.37537406  0.46231991  0.86450890    -0.06000
Cl50       Cl  0.49067307  0.45529644  0.97825724    -0.49000
C51         C  0.51502386  0.28747508  0.87931845     0.43500
H52         H  0.52243924  0.63325648  0.96973021     0.07700
N53         N  0.34536850  0.41091479  0.90268572    -0.45700
N54         N  0.13963110  0.54736820  0.15151219    -0.02600
C55         C  0.18431343  0.55962094  0.14170517     0.00000
C56         C  0.21252443  0.59091979  0.18467646    -0.22900
C57         C  0.18763454  0.59594634  0.22319273    -0.23100
C58         C  0.14386560  0.56835530  0.20355027    -0.00100
H59         H  0.25005181  0.60373271  0.18910922     0.13700
H60         H  0.20261639  0.61357746  0.26274405     0.13700
N61         N  0.87906976  0.52037207  0.11057942    -0.02600
C62         C  0.88252006  0.56177532  0.15188311     0.00000
C63         C  0.84772305  0.59372786  0.14217212    -0.22900
C64         C  0.81782860  0.56794639  0.09858413    -0.23100
C65         C  0.83399200  0.52045897  0.08398515    -0.00100
H66         H  0.83879338  0.62793232  0.16777398     0.13700
H67         H  0.78171268  0.57817193  0.08738631     0.13700
N68         N  0.11950178  0.51185744  0.92107683    -0.02600
C69         C  0.16151772  0.53554760  0.95108808     0.00000
C70         C  0.15977656  0.58649461  0.95624634    -0.22900
C71         C  0.12258027  0.59148380  0.92032939    -0.23100
C72         C  0.10042000  0.54427551  0.89653651    -0.00100
H73         H  0.18766120  0.61585910  0.97602274     0.13700
H74         H  0.11852678  0.62399172  0.90654651     0.13700
N75         N  0.87260037  0.41210656  0.85088868    -0.02600
C76         C  0.87453532  0.40064704  0.79936738     0.00000
C77         C  0.83956498  0.36336294  0.77131977    -0.22900
C78         C  0.81127775  0.35522241  0.80321031    -0.23100
C79         C  0.82857970  0.38809489  0.85046522    -0.00100
H80         H  0.83038011  0.34903843  0.73038058     0.13700
H81         H  0.77642433  0.33427737  0.79075656     0.13700
N82         N  0.99905056  0.46633254  0.92680362    -0.35700
N83         N  0.92463054  0.48166262  0.98977503    -0.56300
N84         N  0.00847919  0.50266844  0.08852112    -0.35700
N85         N  0.10960491  0.50870639  0.02858944    -0.56300
C86         C  0.96112151  0.44338584  0.88947630     0.27900
C87         C  0.04053515  0.46114800  0.90712673     0.27900
C88         C  0.96894308  0.52573986  0.10336592     0.27900
C89         C  0.04910419  0.52911186  0.11937580     0.27900
C90         C  0.90225415  0.44533251  0.94733938     0.36500
C91         C  0.90894970  0.47352294  0.03090712     0.36500
C92         C  0.09660550  0.47132313  0.98479045     0.36500
C93         C  0.10480641  0.48838659  0.06660922     0.36500
C94         C  0.98101758  0.42132033  0.84611822    -0.21000
C95         C  0.03028708  0.43407648  0.85682049    -0.21000
C96         C  0.98520195  0.56865189  0.14336716    -0.21000
C97         C  0.03502808  0.57065070  0.15312485    -0.21000
C98         C  0.87386517  0.41309170  0.96288259    -0.22100
C99         C  0.87722056  0.43144512  0.01491408    -0.22100
C100        C  0.08309555  0.42763943  0.99492338    -0.22100
C101        C  0.08893327  0.43828897  0.04680936    -0.22100
C102        C  0.91080720  0.43821931  0.89574769    -0.17400
C103        C  0.08738594  0.47844286  0.93600567    -0.17400
C104        C  0.09815668  0.51774048  0.11489212    -0.17400
C105        C  0.91958151  0.50636975  0.08201121    -0.17400
H106        H  0.96417102  0.39409313  0.81153854     0.15500
H107        H  0.05604447  0.42127284  0.83175280     0.15500
H108        H  0.96480137  0.59820564  0.16228831     0.15500
H109        H  0.05787257  0.60133554  0.18002351     0.15500
H110        H  0.85551273  0.37759088  0.94026360     0.13800
H111        H  0.86002831  0.41434422  0.03867705     0.13800
H112        H  0.06804906  0.39266005  0.96748926     0.13800
H113        H  0.07797119  0.41369930  0.06755259     0.13800
H114        H  0.99850914  0.48543865  0.96455928     0.27000
H115        H  0.00690896  0.46949303  0.05916661     0.27000
C116        C  0.07840275  0.51768549  0.37140571     0.43300
N117        N  0.06828028  0.51704816  0.44698748     0.02200
C118        C  0.87277544  0.40450934  0.50184579    -0.05600
H119        H  0.85097253  0.56749499  0.40200700     0.07700
C120        C  0.93103758  0.67147216  0.57078176    -0.06000
Co121      Co  0.98006751  0.45096245  0.43724213     0.74200
N122        N  0.89747702  0.51431273  0.42583408    -0.25200
Co123      Co  0.89557446  0.51797041  0.50344408     0.74100
C124        C  0.89133784  0.67785829  0.53426427     0.43500
N125        N  0.03879533  0.62557855  0.57129559     0.01900
N126        N  0.89959495  0.59857359  0.52309267     0.02000
N127        N  0.92659355  0.36632189  0.45522552    -0.46000
H128        H  0.01285879  0.46257983  0.33370357     0.07700
N129        N  0.92839785  0.48562679  0.40231710     0.02200
N130        N  0.89996760  0.52155413  0.58251605     0.02000
C131        C  0.89306790  0.51182803  0.65609504     0.43600
N132        N  0.07010266  0.60339259  0.54317373    -0.24600
C133        C  0.03600529  0.36950657  0.46929406    -0.05500
N134        N  0.09636822  0.53727598  0.42217639    -0.45700
N135        N  0.87557557  0.49506148  0.60504878    -0.46000
C136        C  0.07506390  0.36747404  0.50871114     0.43400
N137        N  0.92723489  0.41448937  0.45897203     0.02200
N138        N  0.07253299  0.52961523  0.60525038    -0.24600
N139        N  0.03292645  0.48719429  0.41500938    -0.25100
N140        N  0.03908051  0.55467988  0.62779596     0.01900
H141        H  0.12671550  0.48451366  0.63233700     0.07800
H142        H  0.95460112  0.57129980  0.69690206     0.07800
N143        N  0.89585803  0.43849326  0.48574137    -0.25200
N144        N  0.93452724  0.62251837  0.55996808    -0.24800
N145        N  0.06787555  0.44451655  0.50979504     0.02200
C146        C  0.89830845  0.52134138  0.34691049     0.43600
C147        C  0.09063724  0.63880140  0.52647893    -0.06000
N148        N  0.93424017  0.55169564  0.61574025    -0.24800
H149        H  0.95504703  0.69928694  0.60002831     0.07800
N150        N  0.92936928  0.48844111  0.35630415    -0.46000
H151        H  0.11576030  0.63207635  0.50007973     0.07800
C152        C  0.07428273  0.52415231  0.68488983     0.43500
C153        C  0.03699215  0.48450883  0.36733057    -0.05500
Co154      Co  0.07239506  0.52414728  0.52682573     0.73800
N155        N  0.03686336  0.67340254  0.57534961    -0.45700
C156        C  0.89306100  0.35625025  0.48073757     0.43700
N157        N  0.09302266  0.41539865  0.53336639    -0.45700
Co158      Co  0.98706442  0.58865452  0.59390924     0.73900
C159        C  0.93082683  0.55035881  0.66259831    -0.06100
C160        C  0.87647170  0.53920215  0.39345758    -0.05600
N161        N  0.03304647  0.41814883  0.47387956    -0.25100
N162        N  0.87283202  0.63087869  0.50515501    -0.45900
H163        H  0.84702256  0.41268031  0.52751098     0.07700
C164        C  0.09779463  0.50903968  0.63934187    -0.06000
Cl165      Cl  0.98376816  0.52041860  0.51532193    -0.49000
C166        C  0.06733880  0.68540017  0.54787220     0.43500
H167        H  0.01143991  0.33931658  0.44392896     0.07700
N168        N  0.03941659  0.55276498  0.67424978    -0.45700
N169        N  0.51801488  0.85193488  0.08555616    -0.02600
C170        C  0.54631579  0.87560373  0.13083412     0.00000
C171        C  0.59089071  0.85545657  0.13208037    -0.22900
C172        C  0.58502897  0.81210487  0.09269414    -0.23100
C173        C  0.53635849  0.80645589  0.07151034    -0.00100
H174        H  0.61948409  0.86253964  0.16467683     0.13700
H175        H  0.60853122  0.78175456  0.09159150     0.13700
N176        N  0.54837634  0.10165460  0.13402161    -0.02600
C177        C  0.56730963  0.14826125  0.13521672     0.00000
C178        C  0.59932840  0.16953095  0.17966801    -0.22900
C179        C  0.59863597  0.13833466  0.20882009    -0.23100
C180        C  0.56557408  0.09871478  0.18241725    -0.00100
H181        H  0.61724059  0.20681425  0.19229035     0.13700
H182        H  0.61483999  0.14765978  0.24855917     0.13700
N183        N  0.47093099  0.07747884  0.88227976    -0.02600
C184        C  0.48184822  0.12555032  0.91249764     0.00000
C185        C  0.43985234  0.15011811  0.91616806    -0.22900
C186        C  0.40465382  0.12028612  0.87983819    -0.23100
C187        C  0.42716852  0.07967831  0.85394970    -0.00100
H188        H  0.43754640  0.18976381  0.93345848     0.13700
H189        H  0.37114670  0.13368250  0.86538020     0.13700
N190        N  0.43528508  0.81434517  0.82304210    -0.02600
C191        C  0.42014570  0.81602045  0.77386734     0.00000
C192        C  0.39828174  0.77059408  0.74296257    -0.22900
C193        C  0.40066328  0.73859977  0.77142579    -0.23100
C194        C  0.42437907  0.76451098  0.81931005    -0.00100
H195        H  0.38543143  0.76053863  0.70241677     0.13700
H196        H  0.39020717  0.69883248  0.75739464     0.13700
N197        N  0.49376078  0.03930401  0.99690461    -0.35700
N198        N  0.47387131  0.94787407  0.89784378    -0.56300
N199        N  0.47533982  0.87951989  0.96123720    -0.35700
N200        N  0.51333137  0.97078125  0.05658093    -0.56300
C201        C  0.50812322  0.04899799  0.95635975     0.27900
C202        C  0.52656628  0.06311832  0.03872508     0.27900
C203        C  0.48048541  0.85079647  0.91412898     0.27900
C204        C  0.50311324  0.86227668  0.99633810     0.27900
C205        C  0.45371005  0.98877528  0.88868639     0.36500
C206        C  0.44436103  0.90704809  0.86982743     0.36500
C207        C  0.50551969  0.01436654  0.09082911     0.36500
C208        C  0.49484737  0.93270076  0.07065142     0.36500
C209        C  0.55166917  0.07770669  0.97201762    -0.21000
C210        C  0.56366582  0.08612208  0.02394715    -0.21000
C211        C  0.51381965  0.81646051  0.91922212    -0.21000
C212        C  0.52766501  0.82293405  0.97068145    -0.21000
C213        C  0.40932521  0.97373455  0.85678444    -0.22100
C214        C  0.40381573  0.92206453  0.84446122    -0.22100
C215        C  0.47980042  0.00364866  0.12524361    -0.22100
C216        C  0.47390594  0.95210299  0.11316281    -0.22100
C217        C  0.47832901  0.03767736  0.90777093    -0.17400
C218        C  0.52231221  0.06229566  0.08879874    -0.17400
C219        C  0.50427257  0.88163517  0.05012871    -0.17400
C220        C  0.45544356  0.85706890  0.86794087    -0.17400
H221        H  0.57289418  0.09062626  0.94839119     0.15500
H222        H  0.59667695  0.10559063  0.04743933     0.15500
H223        H  0.52960770  0.79215720  0.88943362     0.15500
H224        H  0.55525366  0.80267735  0.98622527     0.15500
H225        H  0.38303857  0.99668122  0.84348031     0.13800
H226        H  0.37286622  0.89856105  0.82075247     0.13800
H227        H  0.46355561  0.02949230  0.15345356     0.13800
H228        H  0.45463049  0.93140406  0.13231268     0.13800
H229        H  0.46131274  0.01999028  0.99649432     0.27000
H230        H  0.45209446  0.90830847  0.96918567     0.27000
N231        N  0.10144151  0.91721413  0.53389019    -0.02600
C232        C  0.08655872  0.89090307  0.56374146     0.00000
C233        C  0.11868604  0.90126131  0.60902580    -0.22900
C234        C  0.15724756  0.92901444  0.60439805    -0.23100
C235        C  0.14691923  0.93672969  0.55717657    -0.00100
H236        H  0.11954314  0.88108120  0.63708497     0.13700
H237        H  0.19216496  0.93446635  0.62874475     0.13700
N238        N  0.89064217  0.14915838  0.55304175    -0.02600
C239        C  0.85158202  0.14289613  0.57505988     0.00000
C240        C  0.84824003  0.18481217  0.61465429    -0.22900
C241        C  0.88224999  0.21997687  0.61383244    -0.23100
C242        C  0.90512965  0.19882670  0.57316930    -0.00100
H243        H  0.81846436  0.19232117  0.63542758     0.13700
H244        H  0.88270663  0.25950024  0.63361410     0.13700
N245        N  0.11742264  0.15389048  0.56611111    -0.02600
C246        C  0.10812398  0.20249170  0.58762612     0.00000
C247        C  0.14279601  0.22481217  0.62968848    -0.22900
C248        C  0.17714590  0.19168703  0.63173440    -0.23100
C249        C  0.16311052  0.14968116  0.59079572    -0.00100
H250        H  0.14729037  0.26408091  0.65114785     0.13700
H251        H  0.21264518  0.20113108  0.65501820     0.13700
N252        N  0.85361728  0.89651515  0.48005121    -0.02600
C253        C  0.80965433  0.91645104  0.48551691     0.00000
C254        C  0.80215502  0.92629113  0.53492860    -0.22900
C255        C  0.83641534  0.90358174  0.55850406    -0.23100
C256        C  0.86459272  0.88107942  0.52298123    -0.00100
H257        H  0.76901157  0.93764700  0.54866545     0.13700
H258        H  0.83337730  0.89509360  0.59346960     0.13700
N259        N  0.91313505  0.02201242  0.50161049    -0.35700
N260        N  0.00031138  0.13432429  0.53664284    -0.56300
N261        N  0.06843067  0.02796142  0.51885090    -0.35700
N262        N  0.98180296  0.94660469  0.48465484    -0.56300
C263        C  0.89056190  0.06256031  0.49445284     0.27900
C264        C  0.88409480  0.98059020  0.47411301     0.27900
C265        C  0.09533816  0.06527927  0.51095776     0.27900
C266        C  0.08401211  0.98395504  0.49349475     0.27900
C267        C  0.95783947  0.12056688  0.50282785     0.36500
C268        C  0.03623987  0.12441746  0.50792889     0.36500
C269        C  0.94121470  0.91484616  0.47296972     0.36500
C270        C  0.02019224  0.91783465  0.48192832     0.36500
C271        C  0.84786762  0.04721633  0.46071127    -0.21000
C272        C  0.84411478  0.99546881  0.44743299    -0.21000
C273        C  0.12669457  0.04464665  0.47846894    -0.21000
C274        C  0.11997494  0.99327526  0.46798719    -0.21000
C275        C  0.96721438  0.10171835  0.45407085    -0.22100
C276        C  0.01614951  0.10434217  0.45721529    -0.22100
C277        C  0.95408102  0.86594087  0.45959777    -0.22100
C278        C  0.00371456  0.86786122  0.46467346    -0.22100
C279        C  0.91116207  0.11243004  0.51425904    -0.17400
C280        C  0.89274373  0.92985925  0.47309945    -0.17400
C281        C  0.06982341  0.93613325  0.49702893    -0.17400
C282        C  0.08505375  0.11631309  0.52539324    -0.17400
H283        H  0.82360194  0.07062256  0.44509741     0.15500
H284        H  0.81691684  0.97126210  0.41849365     0.15500
H285        H  0.14892636  0.06382637  0.46052799     0.15500
H286        H  0.13803333  0.96587970  0.44262983     0.15500
H287        H  0.94109591  0.08476599  0.42003762     0.13800
H288        H  0.03535716  0.08909726  0.42615916     0.13800
H289        H  0.93035841  0.83237745  0.44456786     0.13800
H290        H  0.02504131  0.83599780  0.45439517     0.13800
H291        H  0.94577152  0.02348964  0.52558523     0.27000
H292        H  0.04145066  0.03248908  0.54112202     0.27000
C293        C  0.46125861  0.88390593  0.30642732     0.43300
N294        N  0.45730305  0.89783683  0.38526296     0.02200
C295        C  0.39436089  0.11288914  0.54460785    -0.05600
H296        H  0.55254544  0.12098288  0.42958095     0.07700
C297        C  0.63681198  0.02493070  0.53995161    -0.06000
Co298      Co  0.41501182  0.99505021  0.42271952     0.74200
N299        N  0.49329415  0.07480774  0.43870647    -0.25200
Co300      Co  0.49818293  0.07711610  0.51715662     0.74100
C301        C  0.65283962  0.06779025  0.52632095     0.43500
N302        N  0.56945543  0.91836737  0.50109219     0.01900
N303        N  0.57472638  0.06563109  0.52227424     0.02000
N304        N  0.34551116  0.05960868  0.47827367    -0.46000
H305        H  0.42456796  0.95492608  0.30191272     0.07700
N306        N  0.45944628  0.04449523  0.40454191     0.02200
N307        N  0.50097444  0.07235678  0.59252297     0.02000
C308        C  0.48770655  0.07566074  0.66765819     0.43600
N309        N  0.53937264  0.88804191  0.46289711    -0.24600
C310        C  0.32516913  0.94598983  0.43995492    -0.05500
N311        N  0.47372100  0.86651732  0.34700716    -0.45700
N312        N  0.47711314  0.09654658  0.62891056    -0.46000
C313        C  0.31326729  0.90756809  0.46198286     0.43400
N314        N  0.39153519  0.05373606  0.47493749     0.02200
N315        N  0.47057011  0.89587075  0.53838033    -0.24600
N316        N  0.43775152  0.93568918  0.37208331    -0.25100
N317        N  0.50390878  0.92659678  0.57250401     0.01900
H318        H  0.41653177  0.84303365  0.54611101     0.07800
H319        H  0.53549696  0.01122275  0.67139772     0.07800
N320        N  0.42169376  0.08458470  0.51276204    -0.25200
N321        N  0.58940820  0.02627079  0.53601388    -0.24800
N322        N  0.38915151  0.90848300  0.45847609     0.02200
C323        C  0.49838296  0.07546271  0.35865407     0.43600
C324        C  0.56651433  0.86231589  0.42920018    -0.06000
N325        N  0.52364606  0.03568832  0.60494347    -0.24800
H326        H  0.65722433  0.99723093  0.55258013     0.07800
N327        N  0.46114352  0.04410337  0.35732663    -0.46000
H328        H  0.55275987  0.83679972  0.39214677     0.07800
C329        C  0.47017499  0.88913767  0.61708509     0.43500
C330        C  0.43740638  0.92930066  0.32294468    -0.05500
Co331      Co  0.46360879  0.89529310  0.46080608     0.73800
N332        N  0.61507946  0.91465752  0.49611510    -0.45700
C333        C  0.34350435  0.09600378  0.52108749     0.43700
N334        N  0.35471228  0.88605533  0.47390588    -0.45700
Co335      Co  0.54680926  0.97675049  0.55383276     0.73900
C336        C  0.52082624  0.03769107  0.65236469    -0.06100
C337        C  0.52057820  0.09585866  0.41291600    -0.05600
N338        N  0.37242095  0.94508066  0.44083986    -0.25100
N339        N  0.61238329  0.09236735  0.51608853    -0.45900
H340        H  0.40801443  0.14059646  0.58040476     0.07700
C341        C  0.44652181  0.87071752  0.56326684    -0.06000
Cl342      Cl  0.48090131  0.98609215  0.48860660    -0.49000
C343        C  0.61722435  0.88039658  0.45203471     0.43500
H344        H  0.30232464  0.97287588  0.42861856     0.07700
N345        N  0.50528840  0.92326876  0.61907135    -0.45700
C346        C  0.69228764  0.84129704  0.42918003    -0.20400
C347        C  0.66185401  0.88038762  0.42976803    -0.08500
C348        C  0.68253697  0.92716353  0.43062400     0.30400
C349        C  0.73276291  0.93704377  0.44068686    -0.20400
C350        C  0.76386151  0.89990981  0.44760202    -0.08500
C351        C  0.74279352  0.85066403  0.43734568     0.30400
F352        F  0.77037656  0.81339406  0.44428818    -0.19000
H353        H  0.67752827  0.80515644  0.42935368     0.18800
H354        H  0.74664085  0.97567424  0.45025213     0.18800
F355        F  0.65428609  0.96594041  0.43064831    -0.19000
C356        C  0.28732489  0.10023517  0.58476875    -0.20400
C357        C  0.29678188  0.10808156  0.53943046    -0.08500
C358        C  0.25875998  0.12184499  0.50787119     0.30400
C359        C  0.21344545  0.13038946  0.52260732    -0.20400
C360        C  0.20331488  0.12264878  0.56778671    -0.08500
C361        C  0.24125078  0.10736560  0.59879015     0.30400
F362        F  0.23452604  0.10248135  0.64439205    -0.19000
H363        H  0.31554634  0.08844828  0.60927995     0.18800
H364        H  0.18686086  0.14573327  0.49969041     0.18800
F365        F  0.26616138  0.12934555  0.46352190    -0.19000
C366        C  0.77106707  0.13546178  0.52057579    -0.20400
C367        C  0.80556494  0.11314173  0.54862312    -0.08500
C368        C  0.78990038  0.07313968  0.56419401     0.30400
C369        C  0.74075770  0.05774979  0.55463784    -0.20400
C370        C  0.70534646  0.08251765  0.53020984    -0.08500
C371        C  0.72147604  0.12047007  0.51148797     0.30400
F372        F  0.68943128  0.14445171  0.48645759    -0.19000
H373        H  0.78217273  0.16752134  0.50936570     0.18800
H374        H  0.73092742  0.02793028  0.56949469     0.18800
F375        F  0.82162756  0.05148055  0.59215427    -0.19000
C376        C  0.18546322  0.89916432  0.48249853    -0.20400
C377        C  0.18698462  0.93695307  0.52867747    -0.08500
C378        C  0.23122841  0.96394356  0.55306033     0.30400
C379        C  0.27317633  0.95182487  0.53270941    -0.20400
C380        C  0.27176528  0.91226482  0.48810815    -0.08500
C381        C  0.22742411  0.88704844  0.46227908     0.30400
F382        F  0.22471920  0.85097381  0.41730172    -0.19000
H383        H  0.15201744  0.87752129  0.46290394     0.18800
H384        H  0.30680137  0.97369377  0.55140126     0.18800
F385        F  0.23419725  0.00024393  0.59782643    -0.19000
C386        C  0.48054000  0.86495462  0.74640831    -0.20400
C387        C  0.43202161  0.85413969  0.74846376    -0.08500
C388        C  0.39618169  0.86218329  0.71037341     0.30400
C389        C  0.40869214  0.87344918  0.66786316    -0.20400
C390        C  0.45715689  0.87946534  0.66341671    -0.08500
C391        C  0.49307535  0.87813939  0.70460911     0.30400
F392        F  0.54051947  0.88547289  0.70257505    -0.19000
H393        H  0.50890877  0.85835870  0.77447052     0.18800
H394        H  0.38037956  0.87634307  0.63779643     0.18800
F395        F  0.34876349  0.85322062  0.71140359    -0.19000
C396        C  0.41944867  0.11479521  0.77825279    -0.20400
C397        C  0.42583445  0.07323991  0.79824883    -0.08500
C398        C  0.44305665  0.03024935  0.76798986     0.30400
C399        C  0.45659676  0.03007983  0.72222893    -0.20400
C400        C  0.45786636  0.07387740  0.70678988    -0.08500
C401        C  0.43617750  0.11545071  0.73343373     0.30400
F402        F  0.43523733  0.15804241  0.71910481    -0.19000
H403        H  0.40678463  0.14921859  0.79989522     0.18800
H404        H  0.46999352  0.99592503  0.70109371     0.18800
F405        F  0.45247371  0.98981314  0.78438207    -0.19000
C406        C  0.56673901  0.05232946  0.24717147    -0.20400
C407        C  0.54018974  0.07757587  0.21576209    -0.08500
C408        C  0.49942456  0.10146345  0.23222620     0.30400
C409        C  0.48643515  0.10074817  0.27867614    -0.20400
C410        C  0.51479273  0.07824902  0.31120804    -0.08500
C411        C  0.55417078  0.05248701  0.29422079     0.30400
F412        F  0.58088800  0.02804056  0.32345558    -0.19000
H413        H  0.59946561  0.03566653  0.23694215     0.18800
H414        H  0.45495154  0.11939282  0.29013183     0.18800
F415        F  0.47418689  0.12875624  0.20495092    -0.19000
C416        C  0.47874157  0.85596612  0.17245803    -0.20400
C417        C  0.52420756  0.88125304  0.17726865    -0.08500
C418        C  0.54975031  0.90514627  0.22629315     0.30400
C419        C  0.53071028  0.90239798  0.26895127    -0.20400
C420        C  0.48627564  0.87564593  0.26327131    -0.08500
C421        C  0.46031430  0.85267160  0.21485147     0.30400
F422        F  0.41636855  0.82830341  0.20862175    -0.19000
H423        H  0.45730947  0.83767260  0.13563667     0.18800
H424        H  0.54971781  0.92268308  0.30649101     0.18800
F425        F  0.59253979  0.93164228  0.23293780    -0.19000
C426        C  0.94057235  0.27879878  0.56678178    -0.20400
C427        C  0.91559001  0.23182956  0.54205341    -0.08500
C428        C  0.88502868  0.22581647  0.49494258     0.30400
C429        C  0.87695594  0.26669048  0.47567220    -0.20400
C430        C  0.89885754  0.31419408  0.50280342    -0.08500
C431        C  0.93260147  0.31941347  0.54709133     0.30400
F432        F  0.95720663  0.36423777  0.57160466    -0.19000
H433        H  0.96324017  0.28502519  0.60352209     0.18800
H434        H  0.85252862  0.26151875  0.44012397     0.18800
F435        F  0.85881900  0.18193068  0.46995100    -0.19000
C436        C  0.86553633  0.78746895  0.47865855    -0.20400
C437        C  0.87780592  0.82895197  0.52258928    -0.08500
C438        C  0.89350976  0.81894438  0.56908029     0.30400
C439        C  0.89389314  0.76991994  0.57196515    -0.20400
C440        C  0.88119966  0.72844193  0.52851176    -0.08500
C441        C  0.86739950  0.73770885  0.48145083     0.30400
F442        F  0.85680058  0.69900827  0.43826146    -0.19000
H443        H  0.85373615  0.79346325  0.44209366     0.18800
H444        H  0.90501212  0.76459161  0.60898150     0.18800
F445        F  0.90775013  0.85685198  0.61250452    -0.19000
C446        C  0.06571594  0.27978581  0.58902235    -0.20400
C447        C  0.08304294  0.23580349  0.56010697    -0.08500
C448        C  0.09456092  0.23521087  0.51244030     0.30400
C449        C  0.09226217  0.27847218  0.49646902    -0.20400
C450        C  0.07994216  0.32350206  0.52800518    -0.08500
C451        C  0.06504078  0.32348077  0.57367435     0.30400
F452        F  0.05083867  0.36595805  0.60395157    -0.19000
H453        H  0.05733717  0.28171574  0.62611164     0.18800
H454        H  0.10208102  0.27737902  0.46013787     0.18800
F455        F  0.11316026  0.19481136  0.48358870    -0.19000
C456        C  0.03028998  0.76677885  0.55630319    -0.19500
C457        C  0.06637515  0.73517049  0.53856974    -0.08500
C458        C  0.10178817  0.75389018  0.51723026     0.30400
C459        C  0.10395030  0.80458853  0.51905149    -0.20400
C460        C  0.07120761  0.83715448  0.54260662    -0.08500
C461        C  0.03294952  0.81732595  0.55879508     0.30400
F462        F  0.00087719  0.84781500  0.58115442    -0.19000
H463        H  0.00144008  0.75340542  0.57161996     0.18800
H464        H  0.13439257  0.81948846  0.50711047     0.18800
F465        F  0.13663329  0.72482299  0.49895865    -0.19000
C466        C  0.90159311  0.40762674  0.71996006    -0.20400
C467        C  0.89487301  0.43206549  0.77015430    -0.08500
C468        C  0.89133999  0.48425834  0.78314298     0.30400
C469        C  0.89031673  0.50985260  0.74589398    -0.20400
C470        C  0.89115688  0.48389760  0.69453573    -0.08500
C471        C  0.89795427  0.43257790  0.68247300     0.30400
F472        F  0.90070843  0.40628724  0.63419685    -0.19000
H473        H  0.90524430  0.36760115  0.70843336     0.18800
H474        H  0.88740028  0.54997643  0.75688883     0.18800
F475        F  0.88565160  0.51005312  0.83077293    -0.19000
C476        C  0.04692579  0.52393747  0.81205708    -0.20400
C477        C  0.09306128  0.52874977  0.84037574    -0.08500
C478        C  0.13333225  0.52248221  0.81491401     0.30400
C479        C  0.12742139  0.51557403  0.76249331    -0.20400
C480        C  0.08133465  0.51416683  0.73476205    -0.08500
C481        C  0.04104162  0.51531127  0.75964516     0.30400
F482        F  0.99564551  0.51063801  0.73347583    -0.19000
H483        H  0.01555081  0.52804921  0.83060301     0.18800
H484        H  0.15891097  0.51526703  0.74453866     0.18800
F485        F  0.17880929  0.52703203  0.84121442    -0.19000
C486        C  0.88086970  0.59251000  0.24726553    -0.20400
C487        C  0.89591376  0.55776238  0.20523028    -0.08500
C488        C  0.91530001  0.51411519  0.21324524     0.30400
C489        C  0.91543844  0.50370385  0.25929063    -0.20400
C490        C  0.89645565  0.53603725  0.29934735    -0.08500
C491        C  0.88046599  0.58150751  0.29348307     0.30400
F492        F  0.86454687  0.61525663  0.33203622    -0.19000
H493        H  0.86747947  0.62768402  0.24441214     0.18800
H494        H  0.92956739  0.46888980  0.26290012     0.18800
F495        F  0.93216221  0.47970109  0.17600816    -0.19000
C496        C  0.09958561  0.50775628  0.23643524    -0.20400
C497        C  0.11478370  0.55720431  0.24053500    -0.08500
C498        C  0.11530722  0.59395228  0.28783348     0.30400
C499        C  0.10571069  0.58079128  0.33058380    -0.20400
C500        C  0.09264321  0.53112331  0.32704708    -0.08500
C501        C  0.08780094  0.49496574  0.27878583     0.30400
F502        F  0.07384015  0.44647933  0.27292538    -0.19000
H503        H  0.09961065  0.47838695  0.20139280     0.18800
H504        H  0.10776788  0.60971537  0.36637441     0.18800
F505        F  0.12766014  0.64280333  0.29348226    -0.19000
C506        C  0.48521813  0.23140015  0.07926780    -0.20400
C507        C  0.51888414  0.26979357  0.07973815    -0.08500
C508        C  0.56814538  0.26218591  0.08848757     0.30400
C509        C  0.58331115  0.21804629  0.09874432    -0.20400
C510        C  0.54993121  0.18145546  0.10313935    -0.08500
C511        C  0.50041509  0.18815621  0.09188262     0.30400
F512        F  0.46681046  0.15535483  0.09740329    -0.19000
H513        H  0.44691127  0.23593598  0.07115684     0.18800
H514        H  0.62171396  0.21410286  0.10710495     0.18800
F515        F  0.60160151  0.29723469  0.08674953    -0.19000
C516        C  0.52309749  0.75110245  0.12704759    -0.20400
C517        C  0.50951182  0.76387339  0.08122771    -0.08500
C518        C  0.46806989  0.73863191  0.04800493     0.30400
C519        C  0.44566296  0.69706444  0.05673324    -0.20400
C520        C  0.46514089  0.67933488  0.09789832    -0.08500
C521        C  0.50048660  0.71004506  0.13574666     0.30400
F522        F  0.51955972  0.69494734  0.17648393    -0.19000
H523        H  0.55270798  0.77177480  0.15573849     0.18800
H524        H  0.41808738  0.67402634  0.02694511     0.18800
F525        F  0.45153666  0.75166260  0.00535185    -0.19000
C526        C  0.49299195  0.66166865  0.85151684    -0.20400
C527        C  0.46100202  0.64098922  0.87521123    -0.08500
C528        C  0.42064713  0.66725555  0.88864848     0.30400
C529        C  0.41170398  0.71245843  0.87670756    -0.20400
C530        C  0.44326409  0.73285467  0.85190655    -0.08500
C531        C  0.48373238  0.70612340  0.83890224     0.30400
F532        F  0.51231318  0.72108631  0.81005415    -0.19000
H533        H  0.52476579  0.64264074  0.84164168     0.18800
H534        H  0.37853475  0.72989037  0.88394291     0.18800
F535        F  0.38920870  0.64844932  0.91211685    -0.19000
C536        C  0.73023738  0.47146310  0.89293870    -0.20400
C537        C  0.69318423  0.43548861  0.89062075    -0.08500
C538        C  0.70558030  0.38638197  0.88716849     0.30400
C539        C  0.75314704  0.37319276  0.88323436    -0.20400
C540        C  0.78942025  0.40796097  0.88039988    -0.08500
C541        C  0.77748783  0.45790590  0.88712828     0.30400
F542        F  0.81044769  0.49298612  0.88465294    -0.19000
H543        H  0.72214598  0.51011721  0.89773806     0.18800
H544        H  0.76068307  0.33428428  0.87759866     0.18800
F545        F  0.67171445  0.35106973  0.88750192    -0.19000
C546        C  0.53886445  0.20163872  0.84719470    -0.20400
C547        C  0.54487280  0.24649977  0.88668656    -0.08500
C548        C  0.55493105  0.24343444  0.93695325     0.30400
C549        C  0.54190845  0.19898461  0.94706480    -0.20400
C550        C  0.52355944  0.15654787  0.90683748    -0.08500
C551        C  0.53065455  0.15614916  0.85769458     0.30400
F552        F  0.52283152  0.11335665  0.81879459    -0.19000
H553        H  0.53349763  0.20228947  0.80804470     0.18800
H554        H  0.53932870  0.19977825  0.98557505     0.18800
F555        F  0.56541774  0.28596643  0.97628351    -0.19000
C556        C  0.24980628  0.54241940  0.93925137    -0.20400
C557        C  0.20856409  0.51251196  0.94064291    -0.08500
C558        C  0.20933610  0.46028489  0.92019963     0.30400
C559        C  0.24756013  0.43958879  0.89651558    -0.20400
C560        C  0.28696483  0.46970422  0.89288190    -0.08500
C561        C  0.28802307  0.52146946  0.91534491     0.30400
F562        F  0.32667230  0.55177933  0.91588478    -0.19000
H563        H  0.25255371  0.58260830  0.95496010     0.18800
H564        H  0.24702816  0.39918579  0.88198379     0.18800
F565        F  0.17293970  0.42870263  0.92236049    -0.19000
C566        C  0.21515976  0.48235591  0.09080714    -0.20400
C567        C  0.20982615  0.53394853  0.09945630    -0.08500
C568        C  0.24525181  0.56252226  0.08630983     0.30400
C569        C  0.28784114  0.54161079  0.07266964    -0.20400
C570        C  0.29458584  0.49115733  0.06866989    -0.08500
C571        C  0.25641599  0.46089894  0.07419863     0.30400
F572        F  0.26107501  0.41141084  0.06849014    -0.19000
H573        H  0.19028871  0.45953259  0.10251783     0.18800
H574        H  0.31610703  0.56515506  0.06657986     0.18800
F575        F  0.24182383  0.61248495  0.09385411    -0.19000
C576        C  0.78075568  0.48012392  0.12802571    -0.20400
C577        C  0.79559161  0.48175211  0.08224140    -0.08500
C578        C  0.76444405  0.45930175  0.03656745     0.30400
C579        C  0.71746220  0.44206167  0.03689482    -0.20400
C580        C  0.69951354  0.45106986  0.08288551    -0.08500
C581        C  0.73256462  0.46584749  0.12847786     0.30400
F582        F  0.71668117  0.47475904  0.17348561    -0.19000
H583        H  0.80412661  0.49714315  0.16402886     0.18800
H584        H  0.69267990  0.43004411  0.00108994     0.18800
F585        F  0.77697186  0.46106820  0.99223164    -0.19000
loop_ 
_geom_bond_atom_site_label_1 
_geom_bond_atom_site_label_2 
_geom_bond_distance 
_geom_bond_site_symmetry_2 
_ccdc_geom_bond_type 
C1           N19   1.369       .  A
C1           C38   1.443       .  S
C1          C537   1.496       .  S
N2           N19   1.338       .  A
N2           N24   1.316       .  A
N2          Co39   2.157       .  S
C3           N28   1.360       .  A
C3           C41   1.481       .  S
C3           H48   1.081       .  S
H4           C45   1.081       .  S
C5           N29   1.335       .  A
C5            C9   1.443       .  S
C5           H34   1.081   1_554  S
Co6          N24   2.054       .  S
Co6          N14   2.047   1_556  S
Co6          N46   2.061       .  S
Co6          N22   2.011   1_556  S
Co6         Cl50   2.443       .  S
N7           C45   1.360       .  A
N7           N14   1.321       .  A
N7           Co8   2.130       .  S
Co8          N11   2.138       .  S
Co8          N28   2.133       .  S
Co8          N15   2.127       .  S
Co8         Cl50   2.459   1_554  S
C9           N47   1.364       .  A
C9          C507   1.484       .  S
N10          N17   1.321       .  A
N10          N40   1.312       .  A
N10         Co43   2.037       .  S
N11          N29   1.318       .  A
N11          N47   1.335       .  A
N12          C41   1.327       .  A
N12          N22   1.307       .  A
H13          C38   1.081       .  S
N14          N35   1.311       .  A
N15          N33   1.321       .  A
N15          N20   1.332       .  A
C16          N20   1.359       .  A
C16          C44   1.447       .  S
C16         C570   1.481       .  S
N17          C32   1.358       .  A
N17         Co39   2.141       .  S
C18          N46   1.338       .  A
C18          C21   1.443       .  S
C18          H52   1.081       .  S
C21          N42   1.364       .  A
C21         C527   1.486       .  S
N22          N28   1.317       .  A
N23          C49   1.360       .  A
N23          N25   1.319       .  A
N23         Co39   2.159       .  S
N24          C38   1.337       .  A
N25          N53   1.311       .  A
N25         Co43   2.025       .  S
H26          C49   1.080       .  S
H27          C44   1.080   1_556  S
N29         Co43   2.054   1_554  S
N30          N42   1.336       .  A
N30          N46   1.317       .  A
N30         Co39   2.140       .  S
C31          N35   1.333       .  A
C31          C45   1.480       .  S
C31         C580   1.479       .  S
C32          C51   1.476       .  S
C32          H36   1.080       .  S
N33          C44   1.340       .  A
N33         Co43   2.080   1_554  S
C37          N53   1.330       .  A
C37          C49   1.489       .  S
C37         C560   1.486       .  S
Co39        Cl50   2.442       .  S
N40          C51   1.336       .  A
C41         C520   1.462       .  S
Co43        Cl50   2.464       .  S
C51         C547   1.476       .  S
N54          C58   1.386       .  A
N54          C55   1.383       .  A
N54         C104   1.478       .  S
C55         C567   1.493       .  S
C55          C56   1.379       .  A
C56          H59   1.083       .  S
C56          C57   1.349       .  A
C57          H60   1.082       .  S
C57          C58   1.382       .  A
C58         C497   1.505       .  S
N61          C65   1.364       .  A
N61          C62   1.370       .  A
N61         C105   1.489       .  S
C62         C487   1.512       .  S
C62          C63   1.386       .  A
C63          H66   1.080       .  S
C63          C64   1.361       .  A
C64          H67   1.084       .  S
C64          C65   1.382       .  A
C65         C577   1.495       .  S
N68          C72   1.354       .  A
N68          C69   1.368       .  A
N68         C103   1.469       .  S
C69         C557   1.518       .  S
C69          C70   1.391       .  A
C70          H73   1.080       .  S
C70          C71   1.368       .  A
C71          H74   1.083       .  S
C71          C72   1.378       .  A
C72         C477   1.480       .  S
N75          C79   1.391       .  A
N75          C76   1.390       .  A
N75         C102   1.507       .  S
C76         C467   1.513       .  S
C76          C77   1.382       .  A
C77          H80   1.083       .  S
C77          C78   1.343       .  A
C78          H81   1.083       .  S
C78          C79   1.380       .  A
C79         C540   1.508       .  S
N82          C87   1.360   1_655  A
N82          C86   1.367       .  A
N82         H114   1.039       .  S
N83          C90   1.370       .  A
N83          C91   1.365   1_556  A
N84          C89   1.371       .  A
N84          C88   1.360   1_455  A
N84         H115   1.042       .  S
N85          C92   1.353   1_554  A
N85          C93   1.359       .  A
C86          C94   1.401       .  A
C86         C102   1.462       .  A
C87         C103   1.425       .  A
C87          C95   1.372       .  A
C88          C96   1.394       .  A
C88         C105   1.447       .  A
C89         C104   1.439       .  A
C89          C97   1.381       .  A
C90         C102   1.454       .  A
C90          C98   1.390       .  A
C91         C105   1.439       .  A
C91          C99   1.379       .  A
C92         C100   1.385       .  A
C92         C103   1.414       .  A
C93         C101   1.384       .  A
C93         C104   1.407       .  A
C94         H106   1.074       .  S
C94          C95   1.386   1_655  A
C95         H107   1.082       .  S
C96         H108   1.077       .  S
C96          C97   1.381   1_655  A
C97         H109   1.080       .  S
C98         H110   1.079       .  S
C98          C99   1.381   1_556  A
C99         H111   1.082       .  S
C100        H112   1.083       .  S
C100        C101   1.373   1_556  A
C101        H113   1.083       .  S
C116        N134   1.371       .  A
C116        C153   1.440       .  S
C116        C500   1.498       .  S
N117        N134   1.340       .  A
N117        N139   1.318       .  A
N117       Co154   2.162       .  S
C118        N143   1.352       .  A
C118        C156   1.476       .  S
C118        H163   1.081       .  S
H119        C160   1.081       .  S
C120        N144   1.323       .  A
C120        C124   1.438       .  S
C120        H149   1.080       .  S
Co121       N139   2.048   1_655  S
Co121       N129   2.037       .  S
Co121       N161   2.053   1_655  S
Co121       N137   2.043       .  S
Co121      Cl165   2.456       .  S
N122        C160   1.361       .  A
N122        N129   1.320       .  A
N122       Co123   2.146       .  S
Co123       N126   2.155       .  S
Co123       N143   2.132       .  S
Co123       N130   2.161       .  S
Co123      Cl165   2.446       .  S
C124        N162   1.371       .  A
C124        C440   1.494       .  S
N125        N132   1.320       .  A
N125        N155   1.310       .  A
N125       Co158   2.041   1_455  S
N126        N144   1.315       .  A
N126        N162   1.341       .  A
N127        C156   1.337       .  A
N127        N137   1.318       .  A
H128        C153   1.081       .  S
N129        N150   1.312       .  A
N130        N148   1.316       .  A
N130        N135   1.337       .  A
C131        N135   1.370       .  A
C131        C159   1.446       .  S
C131        C470   1.500       .  S
N132        C147   1.359       .  A
N132       Co154   2.133       .  S
C133        N161   1.333       .  A
C133        C136   1.440       .  S
C133        H167   1.081       .  S
C136        N157   1.362       .  A
C136        C450   1.474       .  S
N137        N143   1.318       .  A
N138        C164   1.361       .  A
N138        N140   1.318       .  A
N138       Co154   2.147       .  S
N139        C153   1.333       .  A
N140        N168   1.310       .  A
N140       Co158   2.017   1_455  S
H141        C164   1.081       .  S
H142        C159   1.080       .  S
N144       Co158   2.025       .  S
N145        N157   1.332       .  A
N145        N161   1.320       .  A
N145       Co154   2.133       .  S
C146        N150   1.333       .  A
C146        C160   1.486       .  S
C146        C490   1.489       .  S
C147        C166   1.483       .  S
C147        H151   1.081       .  S
N148        C159   1.336       .  A
N148       Co158   2.052       .  S
C152        N168   1.329       .  A
C152        C164   1.484       .  S
C152        C480   1.478       .  S
Co154      Cl165   2.458   1_455  S
N155        C166   1.332       .  A
C156        C430   1.473       .  S
Co158      Cl165   2.449       .  S
C166        C457   1.484       .  S
N169        C173   1.358       .  A
N169        C170   1.359       .  A
N169        C219   1.473       .  S
C170        C417   1.493       .  S
C170        C171   1.385       .  A
C171        H174   1.082       .  S
C171        C172   1.370       .  A
C172        H175   1.083       .  S
C172        C173   1.389       .  A
C173        C517   1.504       .  S
N176        C180   1.385       .  A
N176        C177   1.383       .  A
N176        C218   1.489       .  S
C177        C510   1.500       .  S
C177        C178   1.380       .  A
C178        H181   1.083       .  S
C178        C179   1.351       .  A
C179        H182   1.083       .  S
C179        C180   1.379       .  A
C180        C407   1.491       .  S
N183        C187   1.366       .  A
N183        C184   1.365       .  A
N183        C217   1.481       .  S
C184        C550   1.496       .  S
C184        C185   1.383       .  A
C185        H188   1.083       .  S
C185        C186   1.366       .  A
C186        H189   1.083       .  S
C186        C187   1.386       .  A
C187        C397   1.506       .  S
N190        C194   1.388       .  A
N190        C191   1.384       .  A
N190        C220   1.486       .  S
C191        C387   1.493       .  S
C191        C192   1.380       .  A
C192        H195   1.083       .  S
C192        C193   1.349       .  A
C193        H196   1.083       .  S
C193        C194   1.378       .  A
C194        C530   1.488       .  S
N197        C202   1.358   1_556  A
N197        C201   1.351       .  A
N197        H229   1.046       .  S
N198        C205   1.356       .  A
N198        C206   1.358       .  A
N199        C204   1.357       .  A
N199        C203   1.363       .  A
N199        H230   1.045       .  S
N200        C207   1.364   1_565  A
N200        C208   1.352       .  A
C201        C209   1.385       .  A
C201        C217   1.422       .  A
C202        C218   1.426       .  A
C202        C210   1.387       .  A
C203        C211   1.377       .  A
C203        C220   1.425       .  A
C204        C219   1.437   1_556  A
C204        C212   1.393       .  A
C205        C217   1.433   1_565  A
C205        C213   1.392       .  A
C206        C220   1.425       .  A
C206        C214   1.382       .  A
C207        C215   1.380       .  A
C207        C218   1.427       .  A
C208        C216   1.384       .  A
C208        C219   1.426       .  A
C209        H221   1.081       .  S
C209        C210   1.383   1_556  A
C210        H222   1.081       .  S
C211        H223   1.076       .  S
C211        C212   1.384       .  A
C212        H224   1.078       .  S
C213        H225   1.079       .  S
C213        C214   1.383       .  A
C214        H226   1.082       .  S
C215        H227   1.075       .  S
C215        C216   1.381   1_545  A
C216        H228   1.079       .  S
N231        C235   1.363       .  A
N231        C232   1.360       .  A
N231        C281   1.472       .  S
C232        C460   1.474       .  S
C232        C233   1.383       .  A
C233        H236   1.084       .  S
C233        C234   1.362       .  A
C234        H237   1.082       .  S
C234        C235   1.381       .  A
C235        C377   1.479       .  S
N238        C242   1.365       .  A
N238        C239   1.371       .  A
N238        C279   1.466       .  S
C239        C367   1.486       .  S
C239        C240   1.379       .  A
C240        H243   1.083       .  S
C240        C241   1.362       .  A
C241        H244   1.083       .  S
C241        C242   1.384       .  A
C242        C427   1.486       .  S
N245        C249   1.383       .  A
N245        C246   1.369       .  A
N245        C282   1.473       .  S
C246        C447   1.488       .  S
C246        C247   1.382       .  A
C247        H250   1.083       .  S
C247        C248   1.359       .  A
C248        H251   1.083       .  S
C248        C249   1.382       .  A
C249        C360   1.501       .  S
N252        C256   1.376       .  A
N252        C253   1.380       .  A
N252        C280   1.495       .  S
C253        C350   1.501       .  S
C253        C254   1.377       .  A
C254        H257   1.083       .  S
C254        C255   1.352       .  A
C255        H258   1.082       .  S
C255        C256   1.386       .  A
C256        C437   1.508       .  S
N259        C264   1.359   1_545  A
N259        C263   1.358       .  A
N259        H291   1.039       .  S
N260        C267   1.371   1_455  A
N260        C268   1.372       .  A
N261        C266   1.353   1_545  A
N261        C265   1.361       .  A
N261        H292   1.042       .  S
N262        C269   1.366       .  A
N262        C270   1.360   1_655  A
C263        C271   1.378       .  A
C263        C279   1.415       .  A
C264        C280   1.435       .  A
C264        C272   1.386       .  A
C265        C273   1.382       .  A
C265        C282   1.416       .  A
C266        C281   1.419       .  A
C266        C274   1.384       .  A
C267        C279   1.427       .  A
C267        C275   1.381       .  A
C268        C282   1.428       .  A
C268        C276   1.384       .  A
C269        C277   1.382       .  A
C269        C280   1.436       .  A
C270        C278   1.382       .  A
C270        C281   1.430       .  A
C271        H283   1.082       .  S
C271        C272   1.383   1_545  A
C272        H284   1.079       .  S
C273        H285   1.078       .  S
C273        C274   1.382   1_545  A
C274        H286   1.081       .  S
C275        H287   1.083       .  S
C275        C276   1.364   1_655  A
C276        H288   1.083       .  S
C277        H289   1.076       .  S
C277        C278   1.379   1_655  A
C278        H290   1.081       .  S
C293        N311   1.353       .  A
C293        C330   1.440       .  S
C293        C420   1.454       .  S
N294        N311   1.327       .  A
N294        N316   1.318       .  A
N294       Co331   2.107       .  S
C295        N320   1.360       .  A
C295        C333   1.481       .  S
C295        H340   1.081       .  S
H296        C337   1.081       .  S
C297        N321   1.323       .  A
C297        C301   1.437       .  S
C297        H326   1.078   1_545  S
Co298       N316   2.039       .  S
Co298       N306   2.059   1_565  S
Co298       N338   2.036       .  S
Co298       N314   2.059   1_565  S
Co298      Cl342   2.465       .  S
N299        C337   1.358       .  A
N299        N306   1.322       .  A
N299       Co300   2.152       .  S
Co300       N303   2.172       .  S
Co300       N320   2.154       .  S
Co300       N307   2.132       .  S
Co300      Cl342   2.449   1_545  S
C301        N339   1.375       .  A
C301        C370   1.502       .  S
N302        N309   1.318       .  A
N302        N332   1.316       .  A
N302       Co335   2.052       .  S
N303        N321   1.317       .  A
N303        N339   1.342       .  A
N304        C333   1.340       .  A
N304        N314   1.323       .  A
H305        C330   1.081       .  S
N306        N327   1.322       .  A
N307        N325   1.317       .  A
N307        N312   1.335       .  A
C308        N312   1.363       .  A
C308        C336   1.445       .  S
C308        C400   1.488       .  S
N309        C324   1.360       .  A
N309       Co331   2.138       .  S
C310        N338   1.326       .  A
C310        C313   1.435       .  S
C310        H344   1.081       .  S
C313        N334   1.361       .  A
C313        C380   1.460       .  S
N314        N320   1.319       .  A
N315        C341   1.354       .  A
N315        N317   1.318       .  A
N315       Co331   2.136       .  S
N316        C330   1.329       .  A
N317        N345   1.322       .  A
N317       Co335   2.054       .  S
H318        C341   1.081       .  S
H319        C336   1.079       .  S
N321       Co335   2.023   1_545  S
N322        N334   1.331       .  A
N322        N338   1.319       .  A
N322       Co331   2.129       .  S
C323        N327   1.338       .  A
C323        C337   1.483       .  S
C323        C410   1.489       .  S
C324        C343   1.480       .  S
C324        H328   1.080       .  S
N325        C336   1.322       .  A
N325       Co335   2.043   1_545  S
C329        N345   1.339       .  A
C329        C341   1.479       .  S
C329        C390   1.489       .  S
Co331      Cl342   2.443       .  S
N332        C343   1.337       .  A
C333        C357   1.496       .  S
Co335      Cl342   2.457       .  S
C343        C347   1.486       .  S
C346        H353   1.083       .  S
C346        C347   1.401       .  A
C346        C351   1.409       .  A
C347        C348   1.409       .  A
C348        C349   1.401       .  A
C348        F355   1.358       .  S
C349        H354   1.082       .  S
C349        C350   1.407       .  A
C350        C351   1.417       .  A
C351        F352   1.351       .  S
C356        H363   1.083       .  S
C356        C357   1.406       .  A
C356        C361   1.414       .  A
C357        C358   1.406       .  A
C358        C359   1.405       .  A
C358        F365   1.357       .  S
C359        H364   1.081       .  S
C359        C360   1.407       .  A
C360        C361   1.416       .  A
C361        F362   1.358       .  S
C366        H373   1.083       .  S
C366        C367   1.416       .  A
C366        C371   1.409       .  A
C367        C368   1.393       .  A
C368        C369   1.399       .  A
C368        F375   1.357       .  S
C369        H374   1.078       .  S
C369        C370   1.421       .  A
C370        C371   1.402       .  A
C371        F372   1.357       .  S
C376        H383   1.082       .  S
C376        C377   1.408       .  A
C376        C381   1.395       .  A
C377        C378   1.406       .  A
C378        C379   1.396       .  A
C378        F385   1.355   1_565  S
C379        H384   1.084       .  S
C379        C380   1.404       .  A
C380        C381   1.399       .  A
C381        F382   1.357       .  S
C386        H393   1.083       .  S
C386        C387   1.404       .  A
C386        C391   1.409       .  A
C387        C388   1.415       .  A
C388        C389   1.402       .  A
C388        F395   1.357       .  S
C389        H394   1.083       .  S
C389        C390   1.398       .  A
C390        C391   1.414       .  A
C391        F392   1.358       .  S
C396        H403   1.081       .  S
C396        C397   1.426       .  A
C396        C401   1.408       .  A
C397        C398   1.403       .  A
C398        C399   1.387       .  A
C398        F405   1.349   1_545  S
C399        H404   1.080   1_545  S
C399        C400   1.408       .  A
C400        C401   1.399       .  A
C401        F402   1.357       .  S
C406        H413   1.083       .  S
C406        C407   1.410       .  A
C406        C411   1.410       .  A
C407        C408   1.414       .  A
C408        C409   1.405       .  A
C408        F415   1.358       .  S
C409        H414   1.083       .  S
C409        C410   1.404       .  A
C410        C411   1.406       .  A
C411        F412   1.356       .  S
C416        H423   1.082       .  S
C416        C417   1.414       .  A
C416        C421   1.388       .  A
C417        C418   1.407       .  A
C418        C419   1.399       .  A
C418        F425   1.356       .  S
C419        H424   1.084       .  S
C419        C420   1.404       .  A
C420        C421   1.393       .  A
C421        F422   1.359       .  S
C426        H433   1.083       .  S
C426        C427   1.407       .  A
C426        C431   1.401       .  A
C427        C428   1.415       .  A
C428        C429   1.401       .  A
C428        F435   1.357       .  S
C429        H434   1.083       .  S
C429        C430   1.398       .  A
C430        C431   1.402       .  A
C431        F432   1.355       .  S
C436        H443   1.081       .  S
C436        C437   1.415       .  A
C436        C441   1.415       .  A
C437        C438   1.408       .  A
C438        C439   1.393       .  A
C438        F445   1.359       .  S
C439        H444   1.082       .  S
C439        C440   1.408       .  A
C440        C441   1.405       .  A
C441        F442   1.356       .  S
C446        H453   1.083       .  S
C446        C447   1.409       .  A
C446        C451   1.402       .  A
C447        C448   1.412       .  A
C448        C449   1.400       .  A
C448        F455   1.356       .  S
C449        H454   1.084       .  S
C449        C450   1.401       .  A
C450        C451   1.402       .  A
C451        F452   1.356       .  S
C456        H463   1.080       .  S
C456        C457   1.416       .  A
C456        C461   1.392       .  A
C457        C458   1.399       .  A
C458        C459   1.401       .  A
C458        F465   1.356       .  S
C459        H464   1.081       .  S
C459        C460   1.413       .  A
C460        C461   1.391       .  A
C461        F462   1.356       .  S
C466        H473   1.084       .  S
C466        C467   1.417       .  A
C466        C471   1.403       .  A
C467        C468   1.408       .  A
C468        C469   1.415       .  A
C468        F475   1.356       .  S
C469        H474   1.083       .  S
C469        C470   1.414       .  A
C470        C471   1.401       .  A
C471        F472   1.353       .  S
C476        H483   1.084       .  S
C476        C477   1.390       .  A
C476        C481   1.394       .  A
C477        C478   1.418       .  A
C478        C479   1.401       .  A
C478        F485   1.354       .  S
C479        H484   1.083       .  S
C479        C480   1.394       .  A
C480        C481   1.416       .  A
C481        F482   1.350   1_455  S
C486        H493   1.079       .  S
C486        C487   1.423       .  A
C486        C491   1.408       .  A
C487        C488   1.407       .  A
C488        C489   1.394       .  A
C488        F495   1.355       .  S
C489        H494   1.083       .  S
C489        C490   1.409       .  A
C490        C491   1.400       .  A
C491        F492   1.357       .  S
C496        H503   1.083       .  S
C496        C497   1.403       .  A
C496        C501   1.410       .  A
C497        C498   1.420       .  A
C498        C499   1.405       .  A
C498        F505   1.358       .  S
C499        H504   1.083       .  S
C499        C500   1.398       .  A
C500        C501   1.419       .  A
C501        F502   1.357       .  S
C506        H513   1.083       .  S
C506        C507   1.409       .  A
C506        C511   1.407       .  A
C507        C508   1.400       .  A
C508        C509   1.403       .  A
C508        F515   1.357       .  S
C509        H514   1.083       .  S
C509        C510   1.415       .  A
C510        C511   1.407       .  A
C511        F512   1.357       .  S
C516        H523   1.082       .  S
C516        C517   1.419       .  A
C516        C521   1.396       .  A
C517        C518   1.401       .  A
C518        C519   1.406       .  A
C518        F525   1.357       .  S
C519        H524   1.084       .  S
C519        C520   1.413       .  A
C520        C521   1.397       .  A
C521        F522   1.358       .  S
C526        H533   1.083       .  S
C526        C527   1.399       .  A
C526        C531   1.402       .  A
C527        C528   1.408       .  A
C528        C529   1.412       .  A
C528        F535   1.357       .  S
C529        H534   1.083       .  S
C529        C530   1.408       .  A
C530        C531   1.414       .  A
C531        F532   1.359       .  S
C536        H543   1.083       .  S
C536        C537   1.411       .  A
C536        C541   1.411       .  A
C537        C538   1.403       .  A
C538        C539   1.408       .  A
C538        F545   1.357       .  S
C539        H544   1.083       .  S
C539        C540   1.418       .  A
C540        C541   1.409       .  A
C541        F542   1.356       .  S
C546        H553   1.083       .  S
C546        C547   1.399       .  A
C546        C551   1.403       .  A
C547        C548   1.412       .  A
C548        C549   1.401       .  A
C548        F555   1.357       .  S
C549        H554   1.081       .  S
C549        C550   1.401       .  A
C550        C551   1.412       .  A
C551        F552   1.352       .  S
C556        H563   1.078       .  S
C556        C557   1.425       .  A
C556        C561   1.406       .  A
C557        C558   1.409       .  A
C558        C559   1.401       .  A
C558        F565   1.355       .  S
C559        H564   1.084       .  S
C559        C560   1.409       .  A
C560        C561   1.400       .  A
C561        F562   1.357       .  S
C566        H573   1.082       .  S
C566        C567   1.407       .  A
C566        C571   1.402       .  A
C567        C568   1.417       .  A
C568        C569   1.404       .  A
C568        F575   1.358       .  S
C569        H574   1.083       .  S
C569        C570   1.401       .  A
C570        C571   1.405       .  A
C571        F572   1.357       .  S
C576        H583   1.082       .  S
C576        C577   1.416       .  A
C576        C581   1.407       .  A
C577        C578   1.396       .  A
C578        C579   1.398       .  A
C578        F585   1.351   1_554  S
C579        H584   1.083       .  S
C579        C580   1.411       .  A
C580        C581   1.400       .  A
C581        F582   1.357       .  S
