geometry optimzed in LAMMPS
_audit_creation_date              2020-11-30 
_audit_creation_method            'lammps2cif' 
_symmetry_space_group_name_H-M    'P1' 
_symmetry_Int_Tables_number       1 
_symmetry_cell_setting            triclinic 
loop_ 
_symmetry_equiv_pos_as_xyz 
  x,y,z 
_cell_length_a                    42.92253692 
_cell_length_b                    43.04126149788153 
_cell_length_c                    43.318922739694 
_cell_angle_alpha                 89.65384222703908 
_cell_angle_beta                  90.60088908520818 
_cell_angle_gamma                 89.56831985422797 
loop_ 
_atom_site_label 
_atom_site_type_symbol 
_atom_site_fract_x 
_atom_site_fract_y 
_atom_site_fract_z 
_atom_site_charge 
O1          O  0.51475573  0.51526829  0.06910542    -0.78000
O2          O  0.46786756  0.47349141  0.94405022    -0.78000
O3          O  0.49827757  0.54577310  0.96980425    -0.78000
O4          O  0.42979077  0.45363774  0.03174877    -0.78000
O5          O  0.51545464  0.51271930  0.93501629    -0.78100
O6          O  0.46016603  0.48755031  0.05565751    -0.78000
O7          O  0.44412705  0.49409662  0.98445847    -0.78000
O8          O  0.49746433  0.54648886  0.03301536    -0.78000
C9          C  0.50335491  0.54130091  0.06112771     1.11700
C10         C  0.44519056  0.48863836  0.95568331     1.11600
C11         C  0.50289099  0.53855388  0.94204754     1.11700
C12         C  0.43377926  0.47343767  0.05284471     1.11600
O13         O  0.50685503  0.45436052  0.08283988    -0.78000
O14         O  0.55843647  0.47012124  0.96570275    -0.78100
O15         O  0.56034201  0.51822939  0.03353179    -0.78000
O16         O  0.46194087  0.43059399  0.98336554    -0.78000
O17         O  0.51119256  0.42777160  0.97237418    -0.78000
O18         O  0.55164025  0.46803986  0.04050949    -0.78000
O19         O  0.48858628  0.43092307  0.04097376    -0.77900
O20         O  0.56125907  0.52098666  0.97142558    -0.78000
Co21       Co  0.50667965  0.47632273  0.04495579     1.51500
Co22       Co  0.51324929  0.47131659  0.95726892     1.51700
Co23       Co  0.52726954  0.53066361  0.00199950     1.51600
Co24       Co  0.46744827  0.46587965  0.01284396     1.51500
O25         O  0.50609096  0.48849096  0.00032947    -1.39900
C26         C  0.49861336  0.42976523  0.06933447     1.11600
C27         C  0.57367623  0.49507329  0.96439930     1.11700
C28         C  0.56961762  0.49120261  0.04191722     1.11700
C29         C  0.48475195  0.41530297  0.97311753     1.11600
N30         N  0.25582388  0.51532959  0.25702760    -0.01300
C31         C  0.28663559  0.51372725  0.25128891     0.01300
C32         C  0.30339620  0.51149556  0.27861423    -0.21600
C33         C  0.28180329  0.51172951  0.30205975    -0.21800
C34         C  0.25281670  0.51407440  0.28801089     0.01200
H35         H  0.32841691  0.50923637  0.28122211     0.15000
H36         H  0.28669952  0.50975923  0.32655696     0.15000
N37         N  0.77155669  0.49429170  0.23132145    -0.01300
C38         C  0.77163682  0.49221719  0.26247182     0.01300
C39         C  0.74184558  0.48719869  0.27304918    -0.21600
C40         C  0.72271966  0.48618657  0.24727780    -0.21800
C41         C  0.74164258  0.49062376  0.22206283     0.01200
H42         H  0.73478715  0.48452737  0.29682532     0.15000
H43         H  0.69779429  0.48254847  0.24698373     0.15000
N44         N  0.24098674  0.51103916  0.76656580    -0.01300
C45         C  0.27246137  0.51072801  0.76892591     0.01300
C46         C  0.28543228  0.51113301  0.73988274    -0.21600
C47         C  0.26088291  0.51166311  0.71896415    -0.21800
C48         C  0.23385486  0.51154837  0.73602155     0.01200
H49         H  0.30998805  0.51091809  0.73445778     0.15000
H50         H  0.26260252  0.51190298  0.69405546     0.15000
N51         N  0.78111956  0.47720770  0.78691956    -0.01300
C52         C  0.78418435  0.47295805  0.75622989     0.01300
C53         C  0.75536037  0.46801377  0.74270902    -0.21600
C54         C  0.73382704  0.46929799  0.76617192    -0.21800
C55         C  0.75043136  0.47499038  0.79300813     0.01200
H56         H  0.75044733  0.46439485  0.71844435     0.15000
H57         H  0.70884265  0.46683212  0.76380436     0.15000
N58         N  0.02192501  0.50813326  0.96879905    -0.34500
N59         N  0.97490335  0.50964018  0.01679458    -0.55000
N60         N  0.02374893  0.51538838  0.06342240    -0.34400
N61         N  0.07094406  0.51110067  0.01558250    -0.55000
C62         C  0.99643129  0.49986638  0.95222521     0.29100
C63         C  0.04718723  0.50172342  0.95146100     0.29100
C64         C  0.99875519  0.51080573  0.08168435     0.29100
C65         C  0.04961822  0.51071339  0.08104591     0.29100
C66         C  0.95593084  0.51087683  0.99171193     0.37800
C67         C  0.95686924  0.51556971  0.04149461     0.37800
C68         C  0.08863901  0.51422103  0.99013106     0.37800
C69         C  0.08971264  0.51690828  0.04009391     0.37800
C70         C  0.00560459  0.48842234  0.92382131    -0.19700
C71         C  0.03761259  0.48964545  0.92331881    -0.19700
C72         C  0.00886517  0.50367443  0.11142431    -0.19700
C73         C  0.04091735  0.50357186  0.11102089    -0.19700
C74         C  0.92561841  0.51736209  0.00053567    -0.20800
C75         C  0.92621563  0.52036942  0.03205894    -0.20800
C76         C  0.11889885  0.52178915  0.99852486    -0.20800
C77         C  0.11959858  0.52340800  0.03018463    -0.20800
C78         C  0.96511582  0.50401145  0.96128356    -0.16100
C79         C  0.07847976  0.50799153  0.95968381    -0.16100
C80         C  0.08078135  0.51438537  0.07130941    -0.16100
C81         C  0.96712946  0.51412437  0.07257184    -0.16100
H82         H  0.99077135  0.48028075  0.90524386     0.16800
H83         H  0.05216322  0.48256629  0.90431140     0.16800
H84         H  0.99463396  0.49909796  0.13140108     0.16800
H85         H  0.05607805  0.49897206  0.13067180     0.16800
H86         H  0.90511798  0.51925007  0.98585687     0.15100
H87         H  0.90624420  0.52497647  0.04642732     0.15100
H88         H  0.13855118  0.52523447  0.98345799     0.15100
H89         H  0.13987398  0.52844170  0.04430367     0.15100
H90         H  0.02194266  0.52065692  0.98918253     0.28300
H91         H  0.02317588  0.52440721  0.04116818     0.28300
O92         O  0.07011204  0.46695359  0.47507884    -0.78000
O93         O  0.95099180  0.52759977  0.50327311    -0.78000
O94         O  0.97076215  0.48911748  0.44499823    -0.78000
O95         O  0.02175037  0.54018932  0.49429572    -0.78000
O96         O  0.93484617  0.47396436  0.47680733    -0.78100
O97         O  0.06360043  0.51565067  0.51310108    -0.78000
O98         O  0.97703700  0.55717854  0.53605121    -0.78000
O99         O  0.03413671  0.48512561  0.44299342    -0.78000
C100        C  0.06239088  0.48037451  0.44993251     1.11700
C101        C  0.95507579  0.55408399  0.51660690     1.11600
C102        C  0.94246751  0.48473911  0.45074822     1.11700
C103        C  0.05094733  0.53864316  0.49880920     1.11600
O104        O  0.03681077  0.47394865  0.56020464    -0.78000
O105        O  0.96447259  0.43579613  0.52297043    -0.78100
O106        O  0.03186212  0.42250805  0.46858086    -0.78000
O107        O  0.96873016  0.49876268  0.55984995    -0.78000
O108        O  0.92439454  0.48282273  0.53860159    -0.78000
O109        O  0.04010232  0.42628057  0.51883832    -0.78000
O110        O  0.02743414  0.52346015  0.55769862    -0.77900
O111        O  0.96908119  0.42647219  0.47299743    -0.78000
Co112      Co  0.04970938  0.47078686  0.51664875     1.51500
Co113      Co  0.96115248  0.48090317  0.51479445     1.51700
Co114      Co  0.00155047  0.45780043  0.45953483     1.51600
Co115      Co  0.99498794  0.51851189  0.52395772     1.51500
O116        O  0.00560158  0.47927845  0.50117710    -1.39900
C117        C  0.03908482  0.50041779  0.57208331     1.11600
C118        C  0.96095361  0.41795785  0.50002885     1.11700
C119        C  0.04007796  0.41051299  0.49437581     1.11700
C120        C  0.93999033  0.49020791  0.56239306     1.11600
N121        N  0.49261942  0.73469742  0.25962196    -0.01300
C122        C  0.49566411  0.70406074  0.25348777     0.01300
C123        C  0.50223754  0.68776968  0.28039245    -0.21600
C124        C  0.50329148  0.70936635  0.30385835    -0.21800
C125        C  0.49732567  0.73795401  0.29032397     0.01200
H126        H  0.50605248  0.66297904  0.28271319     0.15000
H127        H  0.50806685  0.70472091  0.32803747     0.15000
N128        N  0.51988476  0.22351482  0.25439938    -0.01300
C129        C  0.52406677  0.25395362  0.24796805     0.01300
C130        C  0.53258101  0.26974100  0.27437664    -0.21600
C131        C  0.53366076  0.24804039  0.29795312    -0.21800
C132        C  0.52577948  0.21994195  0.28491562     0.01200
H133        H  0.53716014  0.29434427  0.27637152     0.15000
H134        H  0.53916825  0.25237552  0.32197714     0.15000
N135        N  0.46230697  0.20782429  0.79425555    -0.01300
C136        C  0.46140356  0.20470355  0.76323668     0.01300
C137        C  0.45881071  0.23349303  0.74915005    -0.21600
C138        C  0.45803946  0.25511197  0.77253958    -0.21800
C139        C  0.46020266  0.23861083  0.79992300     0.01200
H140        H  0.45804186  0.23829794  0.72459849     0.15000
H141        H  0.45650784  0.28009169  0.76982968     0.15000
N142        N  0.48695056  0.76734899  0.78688639    -0.01300
C143        C  0.49010126  0.77900147  0.75806158     0.01300
C144        C  0.49201434  0.75524336  0.73687881    -0.21600
C145        C  0.48998107  0.72787613  0.75341688    -0.21800
C146        C  0.48688152  0.73610181  0.78399237     0.01200
H147        H  0.49492958  0.75753657  0.71218327     0.15000
H148        H  0.49101106  0.70458566  0.74418474     0.15000
N149        N  0.45671124  0.02792747  0.03706693    -0.34500
N150        N  0.45624264  0.98071963  0.08534611    -0.55000
N151        N  0.45154619  0.93229311  0.03862257    -0.34400
N152        N  0.45442238  0.97944828  0.99042736    -0.55000
C153        C  0.46540544  0.04513843  0.06173116     0.29100
C154        C  0.46321598  0.04465480  0.01139255     0.29100
C155        C  0.45712018  0.91481136  0.06417906     0.29100
C156        C  0.45723990  0.91413216  0.01384681     0.29100
C157        C  0.45506831  0.00628966  0.10328456     0.37800
C158        C  0.45128527  0.95608056  0.10408844     0.37800
C159        C  0.45143786  0.00452335  0.97168741     0.37800
C160        C  0.45015499  0.95421770  0.97248953     0.37800
C161        C  0.47703256  0.07336465  0.05155570    -0.19700
C162        C  0.47557088  0.07308574  0.01983619    -0.19700
C163        C  0.46563409  0.88495319  0.05551345    -0.19700
C164        C  0.46574956  0.88454707  0.02379927    -0.19700
C165        C  0.44932024  0.99786314  0.13362618    -0.20800
C166        C  0.44687558  0.96604923  0.13413184    -0.20800
C167        C  0.44522470  0.99516600  0.94166962    -0.20800
C168        C  0.44452231  0.96330191  0.94216432    -0.20800
C169        C  0.46197742  0.03670156  0.09314626    -0.16100
C170        C  0.45739507  0.03543221  0.98059569    -0.16100
C171        C  0.45409168  0.92315340  0.98251752    -0.16100
C172        C  0.45389263  0.92468652  0.09508664    -0.16100
H173        H  0.48563756  0.09229021  0.06551660     0.16800
H174        H  0.48290799  0.09169070  0.00470889     0.16800
H175        H  0.47134123  0.86544912  0.07047134     0.16800
H176        H  0.47150283  0.86468377  0.00969130     0.16800
H177        H  0.44778140  0.01298427  0.15343598     0.15100
H178        H  0.44315871  0.95182513  0.15443639     0.15100
H179        H  0.44242010  0.00972043  0.92134913     0.15100
H180        H  0.44094503  0.94850565  0.92234246     0.15100
H181        H  0.44421906  0.00738499  0.03770571     0.28300
H182        H  0.44171466  0.95438876  0.03819008     0.28300
N183        N  0.23175690  0.74631261  0.49212474    -0.01300
C184        C  0.22855117  0.71516293  0.49277471     0.01300
C185        C  0.25725045  0.70096998  0.49710826    -0.21600
C186        C  0.27886593  0.72458152  0.49912692    -0.21800
C187        C  0.26239896  0.75215666  0.49595617     0.01200
H188        H  0.26199015  0.67626770  0.49853592     0.15000
H189        H  0.30377114  0.72187672  0.50239388     0.15000
N190        N  0.76731253  0.21987539  0.51599155    -0.01300
C191        C  0.73668088  0.21585106  0.52169065     0.01300
C192        C  0.72306653  0.24396065  0.52918988    -0.21600
C193        C  0.74638510  0.26595921  0.52801218    -0.21800
C194        C  0.77333006  0.25042052  0.51983345     0.01200
H195        H  0.69890791  0.24805920  0.53492183     0.15000
H196        H  0.74391998  0.29051975  0.53269528     0.15000
N197        N  0.21752037  0.20364133  0.54222988    -0.01300
C198        C  0.21156700  0.23377731  0.54840725     0.01300
C199        C  0.23764511  0.24745113  0.56123467    -0.21600
C200        C  0.26045259  0.22458411  0.56285128    -0.21800
C201        C  0.24731895  0.19794168  0.55093153     0.01200
H202        H  0.24010748  0.27149580  0.56794280     0.15000
H203        H  0.28414335  0.22732314  0.57112875     0.15000
N204        N  0.75205352  0.74369915  0.47837243    -0.01300
C205        C  0.72087620  0.74649848  0.48212808     0.01300
C206        C  0.70802349  0.71755636  0.48695653    -0.21600
C207        C  0.73232259  0.69630723  0.48624877    -0.21800
C208        C  0.75908712  0.71307569  0.48099294     0.01200
H209        H  0.68376224  0.71246719  0.49109129     0.15000
H210        H  0.73068532  0.67146529  0.48980760     0.15000
N211        N  0.94028875  0.97501961  0.46551388    -0.34500
N212        N  0.98864633  0.92737100  0.46279841    -0.55000
N213        N  0.03562394  0.97458179  0.47533065    -0.34400
N214        N  0.98749871  0.02264248  0.47425026    -0.55000
C215        C  0.92308159  0.95062650  0.45596694     0.29100
C216        C  0.92243519  0.00086517  0.46216913     0.29100
C217        C  0.05428193  0.94994165  0.46935028     0.29100
C218        C  0.05365955  0.00021986  0.47511038     0.29100
C219        C  0.96343108  0.90875591  0.46174289     0.37800
C220        C  0.01371242  0.90854724  0.46684608     0.37800
C221        C  0.96181329  0.04058629  0.47754022     0.37800
C222        C  0.01208254  0.04045370  0.48212438     0.37800
C223        C  0.89374639  0.96108664  0.44674551    -0.19700
C224        C  0.89333871  0.99276987  0.45067026    -0.19700
C225        C  0.08471820  0.95998008  0.46592932    -0.19700
C226        C  0.08432122  0.99167810  0.46954685    -0.19700
C227        C  0.97259620  0.87789080  0.46449636    -0.20800
C228        C  0.00443369  0.87775609  0.46771566    -0.20800
C229        C  0.97019663  0.07015122  0.48698315    -0.20800
C230        C  0.00202914  0.07007415  0.48983575    -0.20800
C231        C  0.93237996  0.91904309  0.45709806    -0.16100
C232        C  0.93102414  0.03127422  0.47076231    -0.16100
C233        C  0.04357834  0.03091941  0.48108157    -0.16100
C234        C  0.04497339  0.91851817  0.46827718    -0.16100
H235        H  0.87449586  0.94729208  0.43833397     0.16800
H236        H  0.87373475  0.00806968  0.44584379     0.16800
H237        H  0.10515764  0.94592688  0.46136742     0.16800
H238        H  0.10438889  0.00670099  0.46830918     0.16800
H239        H  0.95790945  0.85756116  0.46406937     0.15100
H240        H  0.01907658  0.85729553  0.47025886     0.15100
H241        H  0.95501595  0.08984259  0.49114930     0.15100
H242        H  0.01614791  0.08965241  0.49666525     0.15100
H243        H  0.96150729  0.97367518  0.47708593     0.28300
H244        H  0.01267220  0.97352403  0.48241250     0.28300
O245        O  0.47764167  0.91672711  0.48539566    -0.78000
O246        O  0.53887836  0.03380700  0.51656427    -0.78000
O247        O  0.49923338  0.01596702  0.45746086    -0.78000
O248        O  0.55091668  0.96204546  0.50805404    -0.78000
O249        O  0.48407285  0.05138056  0.48963640    -0.78100
O250        O  0.52501821  0.92158084  0.52631996    -0.78000
O251        O  0.56718851  0.00688122  0.55046636    -0.78000
O252        O  0.49482749  0.95306466  0.45372530    -0.78000
C253        C  0.48966779  0.92488136  0.45989998     1.11700
C254        C  0.56481306  0.02929680  0.53153638     1.11600
C255        C  0.49514162  0.04411438  0.46378781     1.11700
C256        C  0.54844167  0.93295374  0.51237461     1.11600
O257        O  0.48195144  0.94984424  0.57117255    -0.78000
O258        O  0.44698136  0.02157435  0.53529221    -0.78100
O259        O  0.43256791  0.95547575  0.47777205    -0.78000
O260        O  0.50842226  0.01692109  0.57205132    -0.78000
O261        O  0.49382700  0.06151380  0.55033320    -0.78000
O262        O  0.43525274  0.94653767  0.52784652    -0.78000
O263        O  0.53185727  0.95844528  0.57077446    -0.77900
O264        O  0.43630148  0.01798344  0.48531833    -0.78000
Co265      Co  0.48017237  0.93665043  0.52752921     1.51500
Co266      Co  0.49187125  0.02457450  0.52694548     1.51700
Co267      Co  0.46773995  0.98563723  0.47082228     1.51600
Co268      Co  0.52865795  0.99002325  0.53660457     1.51500
O269        O  0.48955640  0.98037328  0.51261673    -1.39900
C270        C  0.50793147  0.94943802  0.58489457     1.11600
C271        C  0.42828231  0.02510163  0.51274592     1.11700
C272        C  0.42033152  0.94588529  0.50261861     1.11700
C273        C  0.49993913  0.04575519  0.57435329     1.11600
C274        C  0.61735430  0.86954961  0.49381150     0.19200
C275        C  0.60995508  0.84208295  0.47816721    -0.09900
C276        C  0.63244962  0.81855256  0.47481319    -0.10800
C277        C  0.66260957  0.82221892  0.48704148     0.20800
C278        C  0.67002221  0.84971402  0.50263026    -0.12800
C279        C  0.64751671  0.87325008  0.50599480    -0.11100
C280        C  0.68549002  0.79740238  0.48434378     0.01700
C281        C  0.70308066  0.77529953  0.48273091    -0.31100
C282        C  0.59374085  0.89332717  0.49835594     0.03100
C283        C  0.57345289  0.91225433  0.50361232    -0.32800
H284        H  0.58672517  0.83873400  0.46879707     0.14100
H285        H  0.62624277  0.79739498  0.46288455     0.14000
H286        H  0.69311335  0.85286455  0.51239130     0.13800
H287        H  0.65356562  0.89421224  0.51833282     0.12900
C288        C  0.86333383  0.85417468  0.45450539     0.19200
C289        C  0.83235527  0.86395427  0.45801345    -0.09900
C290        C  0.80875622  0.84203177  0.46176527    -0.10800
C291        C  0.81606138  0.81024462  0.46204434     0.20800
C292        C  0.84694963  0.80047202  0.45790804    -0.12800
C293        C  0.87053442  0.82238203  0.45416970    -0.11100
C294        C  0.79218979  0.78761381  0.46756442     0.01700
C295        C  0.77322528  0.76774389  0.47264755    -0.31100
C296        C  0.88787979  0.87671872  0.45307181     0.03100
C297        C  0.90831738  0.89578223  0.45386610    -0.32800
H298        H  0.82655177  0.88849076  0.45843040     0.14100
H299        H  0.78496116  0.84985298  0.46495291     0.14000
H300        H  0.85286082  0.77595095  0.45809860     0.13800
H301        H  0.89441690  0.81456397  0.45160700     0.12900
C302        C  0.34991636  0.07684214  0.52866457     0.19200
C303        C  0.34796168  0.09217039  0.55706968    -0.09900
C304        C  0.32456399  0.11442791  0.56194044    -0.10800
C305        C  0.30289405  0.12158279  0.53846529     0.20800
C306        C  0.30440274  0.10578123  0.51028796    -0.12800
C307        C  0.32782264  0.08349566  0.50541287    -0.11100
C308        C  0.28060335  0.14652865  0.54268874     0.01700
C309        C  0.26409584  0.16906742  0.54642999    -0.31100
C310        C  0.37571908  0.05591912  0.52277790     0.03100
C311        C  0.39881016  0.04045174  0.51791897    -0.32800
H312        H  0.36495024  0.08744146  0.57520022     0.14100
H313        H  0.32381837  0.12657392  0.58375857     0.14000
H314        H  0.28794325  0.11118298  0.49186318     0.13800
H315        H  0.32912694  0.07198771  0.48328789     0.12900
C316        C  0.15455611  0.14129050  0.51197566     0.19200
C317        C  0.16377701  0.11099651  0.50452138    -0.09900
C318        C  0.14136643  0.08878971  0.49711901    -0.10800
C319        C  0.10968920  0.09682957  0.49718088     0.20800
C320        C  0.10047624  0.12720866  0.50433817    -0.12800
C321        C  0.12288885  0.14942148  0.51173471    -0.11100
C322        C  0.08662025  0.07372617  0.49071123     0.01700
C323        C  0.06715675  0.05427401  0.48602537    -0.31100
C324        C  0.17746797  0.16364869  0.52110326     0.03100
C325        C  0.19627206  0.18213267  0.53024352    -0.32800
H326        H  0.18821121  0.10447586  0.50480055     0.14100
H327        H  0.14868650  0.06532063  0.49168999     0.14000
H328        H  0.07601212  0.13359903  0.50452126     0.13800
H329        H  0.11553996  0.17277047  0.51761388     0.12900
C330        C  0.63625296  0.09126673  0.52136587     0.19200
C331        C  0.66359990  0.08878675  0.53931550    -0.09900
C332        C  0.68611417  0.11227827  0.53828875    -0.10800
C333        C  0.68150230  0.13848578  0.51929783     0.20800
C334        C  0.65437721  0.14070419  0.50103365    -0.12800
C335        C  0.63189748  0.11725053  0.50205919    -0.11100
C336        C  0.70358906  0.16385490  0.51959100     0.01700
C337        C  0.72003645  0.18663503  0.52023954    -0.31100
C338        C  0.61208707  0.06797961  0.52367651     0.03100
C339        C  0.59098185  0.04963058  0.52649857    -0.32800
H340        H  0.66730020  0.06894569  0.55445340     0.14100
H341        H  0.70684225  0.11023749  0.55266238     0.14000
H342        H  0.65034971  0.16083656  0.48635752     0.13800
H343        H  0.61088620  0.11962687  0.48814204     0.12900
C344        C  0.82735713  0.15074758  0.49455870     0.19200
C345        C  0.85951821  0.15385040  0.49916936    -0.09900
C346        C  0.87949736  0.12895947  0.49286749    -0.10800
C347        C  0.86737437  0.10091929  0.48192781     0.20800
C348        C  0.83522943  0.09784010  0.47721775    -0.12800
C349        C  0.81524070  0.12273943  0.48352718    -0.11100
C350        C  0.88800297  0.07524293  0.47620736     0.01700
C351        C  0.90673794  0.05463032  0.47280623    -0.31100
C352        C  0.80669366  0.17602935  0.50169271     0.03100
C353        C  0.78877029  0.19657070  0.50813513    -0.32800
H354        H  0.86909009  0.17538870  0.50778175     0.14100
H355        H  0.90433748  0.13149802  0.49668088     0.14000
H356        H  0.82564723  0.07620420  0.46886955     0.13800
H357        H  0.79037335  0.12011297  0.47999422     0.12900
C358        C  0.34609063  0.88810181  0.49922301     0.19200
C359        C  0.33631067  0.87587533  0.47081314    -0.09900
C360        C  0.31697632  0.84978525  0.46994425    -0.10800
C361        C  0.30731280  0.83570857  0.49747525     0.20800
C362        C  0.31649248  0.84837584  0.52585784    -0.12800
C363        C  0.33580559  0.87445268  0.52672665    -0.11100
C364        C  0.28955509  0.80732598  0.49667415     0.01700
C365        C  0.27628488  0.78265392  0.49626961    -0.31100
C366        C  0.36901161  0.91253088  0.50023829     0.03100
C367        C  0.39092724  0.93000191  0.50136649    -0.32800
H368        H  0.34433118  0.88595546  0.44936961     0.14100
H369        H  0.31020234  0.84015256  0.44784333     0.14000
H370        H  0.30935041  0.83764874  0.54731146     0.13800
H371        H  0.34343217  0.88342173  0.54884133     0.12900
C372        C  0.11379251  0.85250695  0.47209238     0.19200
C373        C  0.14198965  0.85666676  0.45666745    -0.09900
C374        C  0.16609527  0.83489982  0.46040416    -0.10800
C375        C  0.16204970  0.80895249  0.47958349     0.20800
C376        C  0.13371893  0.80461723  0.49470878    -0.12800
C377        C  0.10962608  0.82637011  0.49097047    -0.11100
C378        C  0.18702757  0.78693751  0.48400140     0.01700
C379        C  0.20779943  0.76831794  0.48780735    -0.31100
C380        C  0.08949792  0.87550518  0.46943603     0.03100
C381        C  0.06921559  0.89496900  0.46839329    -0.32800
H382        H  0.14543410  0.87684872  0.44206205     0.14100
H383        H  0.18792148  0.83841531  0.44858433     0.14000
H384        H  0.13036395  0.78459312  0.50955111     0.13800
H385        H  0.08790709  0.82299665  0.50302418     0.12900
C386        C  0.50719130  0.90496519  0.66785477     0.19200
C387        C  0.53311714  0.88858968  0.67954119    -0.09900
C388        C  0.52955948  0.86720322  0.70369782    -0.10800
C389        C  0.50006877  0.86205212  0.71629424     0.20800
C390        C  0.47435747  0.87926779  0.70536739    -0.12800
C391        C  0.47792122  0.90068186  0.68123590    -0.11100
C392        C  0.49558586  0.83616958  0.73700986     0.01700
C393        C  0.49246859  0.81136711  0.74969883    -0.31100
C394        C  0.50986598  0.92370309  0.64031634     0.03100
C395        C  0.51020094  0.93692104  0.61566586    -0.32800
H396        H  0.55580313  0.89145062  0.66921278     0.14100
H397        H  0.54953263  0.85370613  0.71161538     0.14000
H398        H  0.45136308  0.87517996  0.71456281     0.13800
H399        H  0.45764466  0.91297854  0.67220858     0.12900
C400        C  0.46593283  0.85982093  0.91337486     0.19200
C401        C  0.46720622  0.87184411  0.88330403    -0.09900
C402        C  0.47218214  0.85202390  0.85836398    -0.18000
C403        C  0.47595029  0.82001428  0.86328151     0.20800
C404        C  0.47482109  0.80791563  0.89338953    -0.12800
C405        C  0.46984225  0.82779840  0.91840558    -0.11100
C406        C  0.48055494  0.79985414  0.83722931     0.01700
C407        C  0.48378414  0.78442780  0.81427979    -0.31100
C408        C  0.46083174  0.88058488  0.93883627     0.03100
C409        C  0.45714587  0.89936465  0.95908669    -0.32800
H410        H  0.46430433  0.89655095  0.87913625     0.14100
H411        H  0.47299678  0.86165061  0.83521889     0.14000
H412        H  0.47769138  0.78319932  0.89749244     0.13800
H413        H  0.46899357  0.81824198  0.94157455     0.12900
C414        C  0.47422317  0.13391238  0.70337252     0.19200
C415        C  0.49197899  0.14400813  0.67832626    -0.09900
C416        C  0.49764963  0.12416433  0.65356593    -0.10800
C417        C  0.48561783  0.09400984  0.65359477     0.20800
C418        C  0.46774339  0.08383863  0.67858733    -0.12800
C419        C  0.46205203  0.10376200  0.70345034    -0.11100
C420        C  0.49108675  0.07413203  0.62747205     0.01700
C421        C  0.49560740  0.05977090  0.60405661    -0.31100
C422        C  0.46823975  0.15511160  0.72833387     0.03100
C423        C  0.46452879  0.17603735  0.74640426    -0.32800
H424        H  0.50133932  0.16731725  0.67787742     0.14100
H425        H  0.51129642  0.13239886  0.63431217     0.14000
H426        H  0.45811902  0.06064488  0.67877646     0.13800
H427        H  0.44811634  0.09574222  0.72257575     0.12900
C428        C  0.46308406  0.09905066  0.91023327     0.19200
C429        C  0.47102286  0.13003513  0.91579348    -0.09900
C430        C  0.47223080  0.15130143  0.89130018    -0.10800
C431        C  0.46552748  0.14170385  0.86111141     0.20800
C432        C  0.45787359  0.11063120  0.85548942    -0.12800
C433        C  0.45666541  0.08934591  0.88000635    -0.11100
C434        C  0.46544663  0.16407114  0.83623479     0.01700
C435        C  0.46439266  0.18389585  0.81643307    -0.31100
C436        C  0.46122118  0.07732004  0.93553345     0.03100
C437        C  0.45948833  0.05871928  0.95637518    -0.32800
H438        H  0.47603892  0.13778901  0.93905746     0.14100
H439        H  0.47807657  0.17528366  0.89593123     0.14000
H440        H  0.45255473  0.10295794  0.83226292     0.13800
H441        H  0.45051194  0.06542670  0.87544609     0.12900
C442        C  0.50948920  0.10651542  0.39448498     0.19200
C443        C  0.53406418  0.10261374  0.37374907    -0.09900
C444        C  0.53730136  0.12318408  0.34882780    -0.10800
C445        C  0.51589115  0.14762499  0.34452481     0.20800
C446        C  0.49117757  0.15125879  0.36509576    -0.12800
C447        C  0.48796111  0.13075303  0.38996547    -0.11100
C448        C  0.51997385  0.17014713  0.32021072     0.01700
C449        C  0.52277708  0.19151656  0.30234327    -0.31100
C450        C  0.50595120  0.08550063  0.42015585     0.03100
C451        C  0.50168567  0.06736323  0.44096918    -0.32800
H452        H  0.55076601  0.08384091  0.37695055     0.14100
H453        H  0.55661021  0.12025346  0.33317783     0.14000
H454        H  0.47459929  0.17017449  0.36210882     0.13800
H455        H  0.46880040  0.13389946  0.40575873     0.12900
C456        C  0.49656327  0.15472349  0.19503517     0.19200
C457        C  0.46679619  0.15337040  0.18150648    -0.09900
C458        C  0.45915108  0.12901315  0.16158345    -0.10800
C459        C  0.48120960  0.10583647  0.15509394     0.20800
C460        C  0.51102895  0.10728333  0.16850167    -0.12800
C461        C  0.51867181  0.13163230  0.18842123    -0.11100
C462        C  0.47344318  0.08086668  0.13436934     0.01700
C463        C  0.46763155  0.06042220  0.11624752    -0.31100
C464        C  0.50438707  0.17960294  0.21583832     0.03100
C465        C  0.51133407  0.20006629  0.23352342    -0.32800
H466        H  0.44950866  0.17108824  0.18639443     0.14100
H467        H  0.43607378  0.12825018  0.15125821     0.14000
H468        H  0.52834473  0.08960524  0.16356674     0.13800
H469        H  0.54177304  0.13242360  0.19869588     0.12900
C470        C  0.49871435  0.85971971  0.39236914     0.19200
C471        C  0.48582302  0.86608068  0.36308229    -0.09900
C472        C  0.48565810  0.84309939  0.34027635    -0.10800
C473        C  0.49837350  0.81361851  0.34665226     0.20800
C474        C  0.51155508  0.80743536  0.37582676    -0.12800
C475        C  0.51172681  0.83037550  0.39858622    -0.11100
C476        C  0.49726545  0.78925443  0.32386659     0.01700
C477        C  0.49684824  0.76692961  0.30706143    -0.31100
C478        C  0.49753990  0.88281389  0.41637137     0.03100
C479        C  0.49506389  0.90190817  0.43654279    -0.32800
H480        H  0.47558403  0.88864778  0.35801064     0.14100
H481        H  0.47533862  0.84819305  0.31786565     0.14000
H482        H  0.52139689  0.78473919  0.38109521     0.13800
H483        H  0.52166623  0.82510955  0.42112824     0.12900
C484        C  0.47408523  0.80537628  0.20001545     0.19200
C485        C  0.48161658  0.83568731  0.20889160    -0.09900
C486        C  0.47616426  0.86056279  0.18857287    -0.10800
C487        C  0.46310670  0.85521819  0.15933009     0.20800
C488        C  0.45539131  0.82493635  0.15053281    -0.12800
C489        C  0.46084410  0.80006301  0.17084685    -0.11100
C490        C  0.45850545  0.88058460  0.13796995     0.01700
C491        C  0.45568886  0.90112229  0.11908514    -0.31100
C492        C  0.48034129  0.77974808  0.22068612     0.03100
C493        C  0.48595892  0.75867833  0.23838092    -0.32800
H494        H  0.49188137  0.84004143  0.23139718     0.14100
H495        H  0.48233302  0.88387252  0.19554721     0.14000
H496        H  0.44541266  0.82054536  0.12791157     0.13800
H497        H  0.45496055  0.77671708  0.16374923     0.12900
C498        C  0.85376662  0.30071021  0.51314544     0.19200
C499        C  0.85903912  0.32202681  0.53697274    -0.09900
C500        C  0.88351093  0.34331941  0.53507681    -0.10800
C501        C  0.90304755  0.34358160  0.50933018     0.20800
C502        C  0.89816272  0.32190108  0.48570766    -0.12800
C503        C  0.87363948  0.30055621  0.48761090    -0.11100
C504        C  0.92657574  0.36742067  0.50639851     0.01700
C505        C  0.94395332  0.38934542  0.50383844    -0.31100
C506        C  0.82708717  0.28024151  0.51442952     0.03100
C507        C  0.80339655  0.26520703  0.51637020    -0.32800
H508        H  0.84385233  0.32258565  0.55678394     0.14100
H509        H  0.88679145  0.36001713  0.55342005     0.14000
H510        H  0.91289031  0.32190303  0.46555240     0.13800
H511        H  0.86983683  0.28435415  0.46893166     0.12900
C512        C  0.84205367  0.66574864  0.48707941     0.19200
C513        C  0.85330038  0.65976748  0.51706173    -0.09900
C514        C  0.87818805  0.63899873  0.52202972    -0.10800
C515        C  0.89216532  0.62389239  0.49708757     0.20800
C516        C  0.88138583  0.63033055  0.46697998    -0.12800
C517        C  0.85643128  0.65115476  0.46199937    -0.11100
C518        C  0.91623249  0.60061395  0.50275547     0.01700
C519        C  0.93486053  0.58005325  0.50871984    -0.31100
C520        C  0.81457346  0.68517780  0.48256068     0.03100
C521        C  0.79012831  0.69942653  0.48076477    -0.32800
H522        H  0.84237467  0.67065710  0.53670661     0.14100
H523        H  0.88609647  0.63421789  0.54542252     0.14000
H524        H  0.89180987  0.61877938  0.44743891     0.13800
H525        H  0.84794267  0.65534379  0.43869467     0.12900
C526        C  0.13742639  0.28862551  0.52360273     0.19200
C527        C  0.14476744  0.32025907  0.52300524    -0.09900
C528        C  0.12217211  0.34229547  0.51453966    -0.10800
C529        C  0.09196137  0.33298028  0.50656912     0.20800
C530        C  0.08452175  0.30129113  0.50687798    -0.12800
C531        C  0.10726093  0.27912186  0.51535860    -0.11100
C532        C  0.06890009  0.35654197  0.49932948     0.01700
C533        C  0.05330025  0.37974997  0.49560199    -0.31100
C534        C  0.16118908  0.26639082  0.53269728     0.03100
C535        C  0.18319504  0.25028437  0.54021514    -0.32800
H536        H  0.16796802  0.32792402  0.52925524     0.14100
H537        H  0.12819920  0.36670173  0.51449384     0.14000
H538        H  0.06121721  0.29378766  0.50085487     0.13800
H539        H  0.10130996  0.25470793  0.51565896     0.12900
C540        C  0.15121453  0.66100368  0.48595498     0.19200
C541        C  0.14518191  0.64430663  0.45886037    -0.09900
C542        C  0.12305821  0.62053611  0.45878419    -0.10800
C543        C  0.10687162  0.61336902  0.48580886     0.20800
C544        C  0.11219649  0.63074152  0.51259325    -0.12800
C545        C  0.13429385  0.65446517  0.51267169    -0.11100
C546        C  0.08625459  0.58709733  0.48688159     0.01700
C547        C  0.06985189  0.56475231  0.49057556    -0.31100
C548        C  0.17658196  0.68277203  0.48721528     0.03100
C549        C  0.19950890  0.69873713  0.48938056    -0.32800
H550        H  0.15823511  0.64901306  0.43810208     0.14100
H551        H  0.11921411  0.60722535  0.43795968     0.14000
H552        H  0.09989433  0.62537177  0.53365612     0.13800
H553        H  0.13885502  0.66705248  0.53380704     0.12900
C554        C  0.89513589  0.48529156  0.64505723     0.19200
C555        C  0.87389898  0.50916775  0.65164980    -0.09900
C556        C  0.85472062  0.50698902  0.67747813    -0.10800
C557        C  0.85660183  0.48092907  0.69698299     0.20800
C558        C  0.87842349  0.45738357  0.69090186    -0.12800
C559        C  0.89766240  0.45957443  0.66501394    -0.11100
C560        C  0.83427782  0.47742130  0.72145424     0.01700
C561        C  0.81282631  0.47509047  0.73914614    -0.31100
C562        C  0.91287727  0.48654702  0.61691700     0.03100
C563        C  0.92598072  0.48801198  0.59238566    -0.32800
H564        H  0.87161592  0.52911521  0.63639569     0.14100
H565        H  0.83781503  0.52524011  0.68175906     0.14000
H566        H  0.87998186  0.43700466  0.70565266     0.13800
H567        H  0.91391542  0.44090237  0.66015199     0.12900
C568        C  0.89646947  0.49491069  0.89565594     0.19200
C569        C  0.86508132  0.49719771  0.90400149    -0.09900
C570        C  0.84163014  0.49458808  0.88150794    -0.10800
C571        C  0.84948660  0.48969398  0.85058494     0.20800
C572        C  0.88086463  0.48748765  0.84224144    -0.12800
C573        C  0.90430536  0.49008827  0.86472742    -0.11100
C574        C  0.82539596  0.48622590  0.82754757     0.01700
C575        C  0.80510322  0.48242128  0.80853402    -0.31100
C576        C  0.92062531  0.49771014  0.91874320     0.03100
C577        C  0.94088260  0.50039404  0.93802770    -0.32800
H578        H  0.85876609  0.50095154  0.92784950     0.14100
H579        H  0.81742951  0.49624665  0.88822185     0.14000
H580        H  0.88718480  0.48362638  0.81841270     0.13800
H581        H  0.92849825  0.48830742  0.85802355     0.12900
C582        C  0.10260432  0.50826491  0.64281064     0.19200
C583        C  0.12484412  0.53192629  0.64104416    -0.09900
C584        C  0.14960047  0.53303604  0.66242593    -0.10800
C585        C  0.15247251  0.51049198  0.68585553     0.20800
C586        C  0.13023676  0.48681841  0.68764680    -0.12800
C587        C  0.10545210  0.48570800  0.66624282    -0.11100
C588        C  0.17900204  0.51095843  0.70696244     0.01700
C589        C  0.20284542  0.51132610  0.72226389    -0.31100
C590        C  0.07769468  0.50653523  0.61991367     0.03100
C591        C  0.05846576  0.50446732  0.59929364    -0.32800
H592        H  0.12321924  0.54937253  0.62295439     0.14100
H593        H  0.16670144  0.55130997  0.66047519     0.14000
H594        H  0.13222808  0.46903740  0.70537623     0.13800
H595        H  0.08868306  0.46709635  0.66780398     0.12900
C596        C  0.14155681  0.50727294  0.88937710     0.19200
C597        C  0.16827130  0.52577711  0.89056678    -0.09900
C598        C  0.18848480  0.52671199  0.86542600    -0.10800
C599        C  0.18204265  0.50916060  0.83898531     0.20800
C600        C  0.15546060  0.49049910  0.83791748    -0.12800
C601        C  0.13526926  0.48956251  0.86303540    -0.11100
C602        C  0.20263279  0.51020416  0.81296045     0.01700
C603        C  0.22003019  0.51067905  0.79127386    -0.31100
C604        C  0.12017414  0.50701601  0.91477827     0.03100
C605        C  0.10156187  0.50721815  0.93546193    -0.32800
H606        H  0.17334266  0.53959974  0.91080223     0.14100
H607        H  0.20901152  0.54117647  0.86654553     0.14000
H608        H  0.15028331  0.47679303  0.81763000     0.13800
H609        H  0.11466430  0.47521416  0.86183787     0.12900
C610        C  0.88156819  0.49521298  0.37847484     0.19200
C611        C  0.88845818  0.47800320  0.35197939    -0.09900
C612        C  0.86817519  0.47880652  0.32645619    -0.10800
C613        C  0.84090999  0.49687481  0.32725325     0.20800
C614        C  0.83426570  0.51445082  0.35356917    -0.12800
C615        C  0.85454704  0.51364832  0.37909007    -0.11100
C616        C  0.81888477  0.49612431  0.30189479     0.01700
C617        C  0.79859045  0.49470090  0.28245724    -0.31100
C618        C  0.90182579  0.49322589  0.40520892     0.03100
C619        C  0.91952058  0.49019590  0.42689019    -0.32800
H620        H  0.90927157  0.46364019  0.35122032     0.14100
H621        H  0.87349480  0.46499166  0.30633484     0.14000
H622        H  0.81317268  0.52838044  0.35454088     0.13800
H623        H  0.84894866  0.52703679  0.39941870     0.12900
C624        C  0.89701822  0.51227838  0.13604292     0.19200
C625        C  0.86698224  0.52064530  0.12586832    -0.09900
C626        C  0.84162581  0.51778978  0.14571952    -0.10800
C627        C  0.84612886  0.50653914  0.17587829     0.20800
C628        C  0.87621969  0.49850229  0.18618330    -0.12800
C629        C  0.90159356  0.50135680  0.16631576    -0.11100
C630        C  0.81979881  0.50261449  0.19592716     0.01700
C631        C  0.79753327  0.49889381  0.21232416    -0.31100
C632        C  0.92282566  0.51387892  0.11504323     0.03100
C633        C  0.94353918  0.51438353  0.09638695    -0.32800
H634        H  0.86312185  0.52902802  0.10249395     0.14100
H635        H  0.81848972  0.52404422  0.13746136     0.14000
H636        H  0.88000897  0.48974881  0.20943359     0.13800
H637        H  0.92467788  0.49473094  0.17442781     0.12900
C638        C  0.12947231  0.50064820  0.38681022     0.19200
C639        C  0.12371860  0.49416178  0.35558598    -0.09900
C640        C  0.14716611  0.49844065  0.33375105    -0.10800
C641        C  0.17650131  0.50925510  0.34302252     0.20800
C642        C  0.18210314  0.51614980  0.37417940    -0.12800
C643        C  0.15867086  0.51187518  0.39599939    -0.11100
C644        C  0.20135093  0.51203369  0.32102613     0.01700
C645        C  0.22380037  0.51345477  0.30452229    -0.31100
C646        C  0.10580964  0.49476058  0.40948621     0.03100
C647        C  0.08605793  0.48872173  0.42820353    -0.32800
H648        H  0.10126681  0.48540215  0.34819843     0.14100
H649        H  0.14257094  0.49291157  0.30977427     0.14000
H650        H  0.20472258  0.52440496  0.38166565     0.13800
H651        H  0.16345154  0.51691457  0.42005441     0.12900
C652        C  0.14683881  0.51608516  0.14029277     0.19200
C653        C  0.13670725  0.52107371  0.17053296    -0.09900
C654        C  0.15824277  0.52161664  0.19500297    -0.10800
C655        C  0.19003469  0.51715138  0.18935923     0.20800
C656        C  0.20019608  0.51224506  0.15910799    -0.12800
C657        C  0.17865437  0.51170494  0.13463248    -0.11100
C658        C  0.21223551  0.51715244  0.21453284     0.01700
C659        C  0.23181205  0.51651240  0.23471706    -0.31100
C660        C  0.12451638  0.51542430  0.11521798     0.03100
C661        C  0.10505543  0.51495873  0.09490103    -0.32800
H662        H  0.11216794  0.52447334  0.17518615     0.14100
H663        H  0.15011060  0.52539119  0.21828439     0.14000
H664        H  0.22472896  0.50873090  0.15447674     0.13800
H665        H  0.18677473  0.50782199  0.11136493     0.12900
C666        C  0.50611202  0.35298281  0.12456085     0.19200
C667        C  0.48359878  0.35032886  0.14761752    -0.09900
C668        C  0.48655082  0.32736512  0.17048737    -0.10800
C669        C  0.51203834  0.30682481  0.17050782     0.20800
C670        C  0.53446049  0.30925719  0.14731719    -0.12800
C671        C  0.53150407  0.33227056  0.12439862    -0.11100
C672        C  0.51601790  0.28471557  0.19544991     0.01700
C673        C  0.51946506  0.26877261  0.21828559    -0.31100
C674        C  0.50376634  0.37796323  0.10219324     0.03100
C675        C  0.50141767  0.40059618  0.08563548    -0.32800
H676        H  0.46401103  0.36633271  0.14819766     0.14100
H677        H  0.46923312  0.32596617  0.18845285     0.14000
H678        H  0.55444822  0.29373732  0.14725092     0.13800
H679        H  0.54922361  0.33421403  0.10688306     0.12900
C680        C  0.49399053  0.60977600  0.12593861     0.19200
C681        C  0.51720474  0.63244321  0.12849748    -0.09900
C682        C  0.51617601  0.65438704  0.15229604    -0.10800
C683        C  0.49189554  0.65390192  0.17371909     0.20800
C684        C  0.46835769  0.63164582  0.17075869    -0.12800
C685        C  0.46938406  0.60971848  0.14697860    -0.11100
C686        C  0.49218722  0.67470955  0.19987869     0.01700
C687        C  0.49322532  0.68979703  0.22336685    -0.31100
C688        C  0.49607823  0.58586223  0.10262253     0.03100
C689        C  0.49866755  0.56543413  0.08367709    -0.32800
H690        H  0.53640439  0.63279033  0.11246664     0.14100
H691        H  0.53463784  0.67129795  0.15436144     0.14000
H692        H  0.44954767  0.63082753  0.18721810     0.13800
H693        H  0.45130446  0.59235664  0.14536268     0.12900
C694        C  0.48609516  0.66518508  0.84643240     0.19200
C695        C  0.50892530  0.66237577  0.86962850    -0.09900
C696        C  0.51104971  0.63523911  0.88746295    -0.10800
C697        C  0.49041029  0.61070155  0.88218551     0.20800
C698        C  0.46749277  0.61350483  0.85903915    -0.12800
C699        C  0.46537818  0.64068008  0.84116452    -0.11100
C700        C  0.49278423  0.58298640  0.90091726     0.01700
C701        C  0.49641118  0.56139443  0.91851281    -0.31100
C702        C  0.48497287  0.69249193  0.82703875     0.03100
C703        C  0.48520930  0.71384033  0.80887649    -0.32800
H704        H  0.52522231  0.68103652  0.87375336     0.14100
H705        H  0.52884161  0.63335060  0.90531941     0.14000
H706        H  0.45137897  0.59471836  0.85477105     0.13800
H707        H  0.44778571  0.64249165  0.82311200     0.12900
C708        C  0.65490099  0.49349337  0.91699464     0.19200
C709        C  0.65701544  0.51586049  0.89347880    -0.09900
C710        C  0.67995579  0.51318335  0.87093159    -0.10800
C711        C  0.70098287  0.48811972  0.87170993     0.20800
C712        C  0.69966734  0.46637229  0.89589225    -0.12800
C713        C  0.67667150  0.46905183  0.91848786    -0.11100
C714        C  0.72178327  0.48337624  0.84617881     0.01700
C715        C  0.73638055  0.47940498  0.82282624    -0.31100
C716        C  0.62860822  0.49412891  0.93749532     0.03100
C717        C  0.60445926  0.49451428  0.95157468    -0.32800
H718        H  0.64022772  0.53474717  0.89192557     0.14100
H719        H  0.68058979  0.53004853  0.85228131     0.14000
H720        H  0.71567489  0.44679644  0.89667359     0.13800
H721        H  0.67518719  0.45149926  0.93642958     0.12900
C722        C  0.46695123  0.28995935  0.87828537     0.19200
C723        C  0.44117930  0.29911675  0.89578563    -0.09900
C724        C  0.44439448  0.32214773  0.91834958    -0.10800
C725        C  0.47340121  0.33613052  0.92350852     0.20800
C726        C  0.49920959  0.32653818  0.90636431    -0.12800
C727        C  0.49600126  0.30357934  0.88386076    -0.11100
C728        C  0.47647142  0.36188234  0.94453475     0.01700
C729        C  0.48007792  0.38528294  0.95940526    -0.31100
C730        C  0.46339286  0.26841939  0.85308758     0.03100
C731        C  0.46149829  0.25298751  0.82994682    -0.32800
H732        H  0.41851601  0.28900361  0.89150552     0.14100
H733        H  0.42417067  0.32954244  0.93121602     0.14000
H734        H  0.52167394  0.33734811  0.90987699     0.13800
H735        H  0.51603148  0.29697012  0.87030315     0.12900
C736        C  0.33009907  0.50817018  0.84513096     0.19200
C737        C  0.35560263  0.52839923  0.84532764    -0.09900
C738        C  0.37784026  0.52690502  0.86927630    -0.10800
C739        C  0.37479593  0.50515637  0.89328937     0.20800
C740        C  0.34918051  0.48508955  0.89321044    -0.12800
C741        C  0.32694979  0.48658217  0.86926354    -0.11100
C742        C  0.39870779  0.50218188  0.91702421     0.01700
C743        C  0.41943659  0.49748974  0.93571108    -0.31100
C744        C  0.30779784  0.50903313  0.81974525     0.03100
C745        C  0.29051636  0.50978759  0.79743528    -0.32800
H746        H  0.35848276  0.54510495  0.82678851     0.14100
H747        H  0.39760483  0.54240894  0.86883519     0.14000
H748        H  0.34661590  0.46799087  0.91144490     0.13800
H749        H  0.30750444  0.47068487  0.86940504     0.12900
C750        C  0.36799622  0.49287609  0.11728024     0.19200
C751        C  0.34928643  0.46922766  0.12926002    -0.09900
C752        C  0.33044693  0.47497690  0.15481121    -0.10800
C753        C  0.33022987  0.50438219  0.16854258     0.20800
C754        C  0.34839411  0.52822432  0.15613049    -0.12800
C755        C  0.36722252  0.52248081  0.13056893    -0.11100
C756        C  0.31304738  0.50937320  0.19651288     0.01700
C757        C  0.30022023  0.51213468  0.22101095    -0.31100
C758        C  0.38940363  0.48632828  0.09268643     0.03100
C759        C  0.40888650  0.48067982  0.07358339    -0.32800
H760        H  0.34979775  0.44619860  0.11930915     0.14100
H761        H  0.31663521  0.45631482  0.16430255     0.14000
H762        H  0.34856686  0.55100153  0.16663688     0.13800
H763        H  0.38170941  0.54089882  0.12162471     0.12900
C764        C  0.64909783  0.48597393  0.09363493     0.19200
C765        C  0.65264197  0.46112077  0.11444307    -0.09900
C766        C  0.67553464  0.46208402  0.13763873    -0.10800
C767        C  0.69508280  0.48790127  0.14024575     0.20800
C768        C  0.69204995  0.51248037  0.11900790    -0.12800
C769        C  0.66911962  0.51150705  0.09575114    -0.11100
C770        C  0.71613633  0.49006048  0.16633647     0.01700
C771        C  0.73023185  0.49088726  0.19059537    -0.31100
C772        C  0.62323810  0.48640864  0.07205089     0.03100
C773        C  0.59967521  0.48777188  0.05658516    -0.32800
H774        H  0.63713031  0.44140817  0.11329688     0.14100
H775        H  0.67739406  0.44308853  0.15409991     0.14000
H776        H  0.70677439  0.53272153  0.12095011     0.13800
H777        H  0.66642037  0.53102167  0.08001278     0.12900
loop_ 
_geom_bond_atom_site_label_1 
_geom_bond_atom_site_label_2 
_geom_bond_distance 
_geom_bond_site_symmetry_2 
_ccdc_geom_bond_type 
O1            C9   1.264       .  A
O1          Co21   2.012       .  S
O2           C10   1.277       .  A
O2          Co22   2.026       .  S
O3           C11   1.261       .  A
O3          Co23   1.964   1_556  S
O4           C12   1.265       .  A
O4          Co24   1.896       .  S
O5           C11   1.272       .  A
O5          Co22   2.024       .  S
O6           C12   1.294       .  A
O6          Co21   2.108       .  S
O7           C10   1.271       .  A
O7          Co24   1.982   1_556  S
O8            C9   1.259       .  A
O8          Co23   1.985       .  S
C9          C689   1.445       .  S
C10         C743   1.444       .  S
C11         C701   1.436       .  S
C12         C759   1.437       .  S
O13          C26   1.264       .  A
O13         Co21   1.889       .  S
O14          C27   1.263       .  A
O14         Co22   1.970       .  S
O15          C28   1.276       .  A
O15         Co23   2.026       .  S
O16          C29   1.262       .  A
O16         Co24   2.004   1_556  S
O17          C29   1.260       .  A
O17         Co22   1.984       .  S
O18          C28   1.267       .  A
O18         Co21   1.971       .  S
O19          C26   1.298       .  A
O19         Co24   2.123       .  S
O20          C27   1.272       .  A
O20         Co23   2.023   1_556  S
Co21         O25   2.000       .  S
Co22         O25   2.036   1_556  S
Co23         O25   2.038       .  S
Co24         O25   2.007       .  S
C26         C675   1.440       .  S
C27         C717   1.439       .  S
C28         C773   1.438       .  S
C29         C729   1.440       .  S
N30          C34   1.350       .  A
N30          C31   1.350       .  A
N30         C659   1.406       .  S
C31         C757   1.443       .  S
C31          C32   1.381       .  A
C32          C33   1.382       .  A
C32          H35   1.082       .  S
C33          C34   1.382       .  A
C33          H36   1.082       .  S
C34         C645   1.443       .  S
N37          C41   1.352       .  A
N37          C38   1.352       .  A
N37         C631   1.407       .  S
C38         C617   1.443       .  S
C38          C39   1.381       .  A
C39          C40   1.380       .  A
C39          H42   1.082       .  S
C40          C41   1.381       .  A
C40          H43   1.082       .  S
C41         C771   1.444       .  S
N44          C48   1.355       .  A
N44          C45   1.354       .  A
N44         C603   1.405       .  S
C45         C745   1.451       .  S
C45          C46   1.381       .  A
C46          C47   1.383       .  A
C46          H49   1.082       .  S
C47          C48   1.382       .  A
C47          H50   1.082       .  S
C48         C589   1.453       .  S
N51          C55   1.350       .  A
N51          C52   1.351       .  A
N51         C575   1.404       .  S
C52         C561   1.445       .  S
C52          C53   1.382       .  A
C53          C54   1.382       .  A
C53          H56   1.082       .  S
C54          C55   1.381       .  A
C54          H57   1.082       .  S
C55         C715   1.444       .  S
N58          C63   1.353       .  A
N58          C62   1.353   1_455  A
N58          H90   1.037       .  S
N59          C66   1.352   1_554  A
N59          C67   1.352       .  A
N60          C65   1.354       .  A
N60          C64   1.355   1_455  A
N60          H91   1.037       .  S
N61          C68   1.352   1_554  A
N61          C69   1.352       .  A
C62          C70   1.388   1_655  A
C62          C78   1.415       .  A
C63          C79   1.414       .  A
C63          C71   1.388       .  A
C64          C72   1.387   1_655  A
C64          C81   1.416       .  A
C65          C80   1.416       .  A
C65          C73   1.388       .  A
C66          C78   1.412       .  A
C66          C74   1.387   1_556  A
C67          C81   1.413       .  A
C67          C75   1.387       .  A
C68          C76   1.387       .  A
C68          C79   1.413       .  A
C69          C77   1.387       .  A
C69          C80   1.413       .  A
C70          C71   1.376       .  A
C70          H82   1.083   1_455  S
C71          H83   1.083       .  S
C72          C73   1.376       .  A
C72          H84   1.082   1_455  S
C73          H85   1.082       .  S
C74          C75   1.372       .  A
C74          H86   1.082   1_554  S
C75          H87   1.082       .  S
C76          C77   1.374   1_556  A
C76          H88   1.082       .  S
C77          H89   1.082       .  S
C78         C577   1.450       .  S
C79         C605   1.451       .  S
C80         C661   1.452       .  S
C81         C633   1.453       .  S
O92         C100   1.270       .  A
O92        Co112   2.018       .  S
O93         C101   1.293       .  A
O93        Co113   2.109       .  S
O94         C102   1.258       .  A
O94        Co114   1.976   1_655  S
O95         C103   1.268       .  A
O95        Co115   1.968   1_455  S
O96         C102   1.265       .  A
O96        Co113   2.011       .  S
O97         C103   1.279       .  A
O97        Co112   2.031       .  S
O98         C101   1.266       .  A
O98        Co115   1.907       .  S
O99         C100   1.261       .  A
O99        Co114   1.972       .  S
C100        C647   1.438       .  S
C101        C519   1.447       .  S
C102        C619   1.437       .  S
C103        C547   1.436       .  S
O104        C117   1.257       .  A
O104       Co112   1.977       .  S
O105        C118   1.268       .  A
O105       Co113   1.975       .  S
O106        C119   1.273       .  A
O106       Co114   2.026       .  S
O107        C120   1.296       .  A
O107       Co115   2.108       .  S
O108        C120   1.267       .  A
O108       Co113   1.895       .  S
O109        C119   1.262       .  A
O109       Co112   1.964       .  S
O110        C117   1.265       .  A
O110       Co115   2.022   1_455  S
O111        C118   1.278       .  A
O111       Co114   2.034   1_655  S
Co112       O116   2.032       .  S
Co113       O116   2.004   1_655  S
Co114       O116   2.038       .  S
Co115       O116   2.013   1_655  S
C117        C591   1.448       .  S
C118        C505   1.446       .  S
C119        C533   1.437       .  S
C120        C563   1.440       .  S
N121        C125   1.351       .  A
N121        C122   1.352       .  A
N121        C493   1.404       .  S
C122        C687   1.449       .  S
C122        C123   1.382       .  A
C123        C124   1.382       .  A
C123        H126   1.082       .  S
C124        C125   1.381       .  A
C124        H127   1.082       .  S
C125        C477   1.446       .  S
N128        C132   1.351       .  A
N128        C129   1.351       .  A
N128        C465   1.407       .  S
C129        C673   1.443       .  S
C129        C130   1.381       .  A
C130        C131   1.380       .  A
C130        H133   1.082       .  S
C131        C132   1.381       .  A
C131        H134   1.082       .  S
C132        C449   1.441       .  S
N135        C139   1.352       .  A
N135        C136   1.351       .  A
N135        C435   1.406       .  S
C136        C423   1.443       .  S
C136        C137   1.381       .  A
C137        C138   1.380       .  A
C137        H140   1.082       .  S
C138        C139   1.381       .  A
C138        H141   1.082       .  S
C139        C731   1.444       .  S
N142        C146   1.352       .  A
N142        C143   1.351       .  A
N142        C407   1.407       .  S
C143        C393   1.442       .  S
C143        C144   1.381       .  A
C144        C145   1.379       .  A
C144        H147   1.082       .  S
C145        C146   1.381       .  A
C145        H148   1.082       .  S
C146        C703   1.441       .  S
N149        C154   1.354       .  A
N149        C153   1.355       .  A
N149        H181   1.038       .  S
N150        C157   1.352   1_565  A
N150        C158   1.351       .  A
N151        C156   1.355       .  A
N151        C155   1.353       .  A
N151        H182   1.038       .  S
N152        C159   1.351   1_565  A
N152        C160   1.352       .  A
C153        C161   1.388       .  A
C153        C169   1.416       .  A
C154        C170   1.414   1_554  A
C154        C162   1.387       .  A
C155        C163   1.388       .  A
C155        C172   1.415       .  A
C156        C171   1.414   1_554  A
C156        C164   1.387       .  A
C157        C169   1.413       .  A
C157        C165   1.386   1_545  A
C158        C172   1.413       .  A
C158        C166   1.387       .  A
C159        C167   1.387   1_545  A
C159        C170   1.412       .  A
C160        C168   1.387       .  A
C160        C171   1.412       .  A
C161        C162   1.375       .  A
C161        H173   1.082       .  S
C162        H174   1.082       .  S
C163        C164   1.374       .  A
C163        H175   1.082       .  S
C164        H176   1.082       .  S
C165        C166   1.374       .  A
C165        H177   1.082   1_565  S
C166        H178   1.083       .  S
C167        C168   1.372       .  A
C167        H179   1.082   1_565  S
C168        H180   1.082       .  S
C169        C463   1.454       .  S
C170        C437   1.451       .  S
C171        C409   1.452       .  S
C172        C491   1.449       .  S
N183        C187   1.350       .  A
N183        C184   1.349       .  A
N183        C379   1.403       .  S
C184        C549   1.444       .  S
C184        C185   1.381       .  A
C185        C186   1.384       .  A
C185        H188   1.082       .  S
C186        C187   1.382       .  A
C186        H189   1.082       .  S
C187        C365   1.446       .  S
N190        C194   1.353       .  A
N190        C191   1.353       .  A
N190        C353   1.403       .  S
C191        C337   1.452       .  S
C191        C192   1.382       .  A
C192        C193   1.384       .  A
C192        H195   1.082       .  S
C193        C194   1.382       .  A
C193        H196   1.082       .  S
C194        C507   1.452       .  S
N197        C201   1.350       .  A
N197        C198   1.349       .  A
N197        C325   1.403       .  S
C198        C535   1.445       .  S
C198        C199   1.382       .  A
C199        C200   1.384       .  A
C199        H202   1.082       .  S
C200        C201   1.382       .  A
C200        H203   1.082       .  S
C201        C309   1.447       .  S
N204        C208   1.354       .  A
N204        C205   1.354       .  A
N204        C295   1.405       .  S
C205        C281   1.452       .  S
C205        C206   1.382       .  A
C206        C207   1.383       .  A
C206        H209   1.082       .  S
C207        C208   1.381       .  A
C207        H210   1.082       .  S
C208        C521   1.452       .  S
N211        C216   1.352   1_565  A
N211        C215   1.353       .  A
N211        H243   1.036       .  S
N212        C219   1.352       .  A
N212        C220   1.351   1_655  A
N213        C218   1.353   1_565  A
N213        C217   1.352       .  A
N213        H244   1.036       .  S
N214        C221   1.351       .  A
N214        C222   1.351   1_655  A
C215        C223   1.388       .  A
C215        C231   1.414       .  A
C216        C232   1.413       .  A
C216        C224   1.387   1_545  A
C217        C225   1.388       .  A
C217        C234   1.414       .  A
C218        C233   1.413       .  A
C218        C226   1.388   1_545  A
C219        C231   1.413       .  A
C219        C227   1.387       .  A
C220        C234   1.413       .  A
C220        C228   1.387       .  A
C221        C229   1.388       .  A
C221        C232   1.412       .  A
C222        C230   1.387       .  A
C222        C233   1.411       .  A
C223        C224   1.375       .  A
C223        H235   1.082       .  S
C224        H236   1.082   1_565  S
C225        C226   1.374       .  A
C225        H237   1.082       .  S
C226        H238   1.083   1_565  S
C227        C228   1.372   1_655  A
C227        H239   1.082       .  S
C228        H240   1.082       .  S
C229        C230   1.371   1_655  A
C229        H241   1.082       .  S
C230        H242   1.083       .  S
C231        C297   1.450       .  S
C232        C351   1.446       .  S
C233        C323   1.447       .  S
C234        C381   1.447       .  S
O245        C253   1.273       .  A
O245       Co265   2.024       .  S
O246        C254   1.295       .  A
O246       Co266   2.112       .  S
O247        C255   1.255       .  A
O247       Co267   1.975   1_545  S
O248        C256   1.270       .  A
O248       Co268   1.979       .  S
O249        C255   1.261       .  A
O249       Co266   2.004       .  S
O250        C256   1.277       .  A
O250       Co265   2.028       .  S
O251        C254   1.265       .  A
O251       Co268   1.904   1_545  S
O252        C253   1.262       .  A
O252       Co267   1.968       .  S
C253        C479   1.438       .  S
C254        C339   1.447       .  S
C255        C451   1.434       .  S
C256        C283   1.445       .  S
O257        C270   1.258       .  A
O257       Co265   1.978       .  S
O258        C271   1.265       .  A
O258       Co266   1.969       .  S
O259        C272   1.271       .  A
O259       Co267   2.022       .  S
O260        C273   1.295       .  A
O260       Co268   2.118   1_545  S
O261        C273   1.263       .  A
O261       Co266   1.892       .  S
O262        C272   1.261       .  A
O262       Co265   1.972       .  S
O263        C270   1.263       .  A
O263       Co268   2.006       .  S
O264        C271   1.279       .  A
O264       Co267   2.038   1_545  S
Co265       O269   2.031       .  S
Co266       O269   2.008   1_545  S
Co267       O269   2.040       .  S
Co268       O269   2.012       .  S
C270        C395   1.437       .  S
C271        C311   1.443       .  S
C272        C367   1.441       .  S
C273        C421   1.438       .  S
C274        C282   1.451       .  S
C274        C275   1.403       .  A
C274        C279   1.403       .  A
C275        C276   1.403       .  A
C275        H284   1.084       .  S
C276        C277   1.404       .  A
C276        H285   1.083       .  S
C277        C280   1.452       .  S
C277        C278   1.403       .  A
C278        C279   1.404       .  A
C278        H286   1.083       .  S
C279        H287   1.083       .  S
C280        C281   1.213       .  T
C282        C283   1.212       .  T
C288        C296   1.439       .  S
C288        C289   1.402       .  A
C288        C293   1.401       .  A
C289        C290   1.400       .  A
C289        H298   1.084       .  S
C290        C291   1.401       .  A
C290        H299   1.083       .  S
C291        C294   1.440       .  S
C291        C292   1.402       .  A
C292        C293   1.399       .  A
C292        H300   1.084       .  S
C293        H301   1.084       .  S
C294        C295   1.206       .  T
C296        C297   1.206       .  T
C302        C310   1.448       .  S
C302        C303   1.403       .  A
C302        C307   1.403       .  A
C303        C304   1.401       .  A
C303        H312   1.083       .  S
C304        C305   1.402       .  A
C304        H313   1.083       .  S
C305        C308   1.446       .  S
C305        C306   1.403       .  A
C306        C307   1.403       .  A
C306        H314   1.083       .  S
C307        H315   1.083       .  S
C308        C309   1.210       .  T
C310        C311   1.211       .  T
C316        C324   1.435       .  S
C316        C317   1.400       .  A
C316        C321   1.401       .  A
C317        C318   1.397       .  A
C317        H326   1.084       .  S
C318        C319   1.401       .  A
C318        H327   1.084       .  S
C319        C322   1.435       .  S
C319        C320   1.401       .  A
C320        C321   1.398       .  A
C320        H328   1.084       .  S
C321        H329   1.084       .  S
C322        C323   1.204       .  T
C324        C325   1.203       .  T
C330        C338   1.452       .  S
C330        C331   1.404       .  A
C330        C335   1.403       .  A
C331        C332   1.405       .  A
C331        H340   1.083       .  S
C332        C333   1.404       .  A
C332        H341   1.083       .  S
C333        C336   1.451       .  S
C333        C334   1.403       .  A
C334        C335   1.403       .  A
C334        H342   1.083       .  S
C335        H343   1.083       .  S
C336        C337   1.213       .  T
C338        C339   1.213       .  T
C344        C352   1.436       .  S
C344        C345   1.400       .  A
C344        C349   1.401       .  A
C345        C346   1.397       .  A
C345        H354   1.084       .  S
C346        C347   1.401       .  A
C346        H355   1.084       .  S
C347        C350   1.435       .  S
C347        C348   1.400       .  A
C348        C349   1.398       .  A
C348        H356   1.083       .  S
C349        H357   1.084       .  S
C350        C351   1.204       .  T
C352        C353   1.204       .  T
C358        C366   1.446       .  S
C358        C359   1.403       .  A
C358        C363   1.402       .  A
C359        C360   1.402       .  A
C359        H368   1.083       .  S
C360        C361   1.402       .  A
C360        H369   1.083       .  S
C361        C364   1.445       .  S
C361        C362   1.402       .  A
C362        C363   1.401       .  A
C362        H370   1.083       .  S
C363        H371   1.083       .  S
C364        C365   1.209       .  T
C366        C367   1.209       .  T
C372        C380   1.436       .  S
C372        C373   1.401       .  A
C372        C377   1.400       .  A
C373        C374   1.398       .  A
C373        H382   1.084       .  S
C374        C375   1.401       .  A
C374        H383   1.084       .  S
C375        C378   1.436       .  S
C375        C376   1.401       .  A
C376        C377   1.397       .  A
C376        H384   1.084       .  S
C377        H385   1.084       .  S
C378        C379   1.204       .  T
C380        C381   1.204       .  T
C386        C394   1.442       .  S
C386        C387   1.401       .  A
C386        C391   1.402       .  A
C387        C388   1.400       .  A
C387        H396   1.083       .  S
C388        C389   1.402       .  A
C388        H397   1.084       .  S
C389        C392   1.442       .  S
C389        C390   1.401       .  A
C390        C391   1.400       .  A
C390        H398   1.083       .  S
C391        H399   1.083       .  S
C392        C393   1.207       .  T
C394        C395   1.207       .  T
C400        C408   1.441       .  S
C400        C401   1.401       .  A
C400        C405   1.403       .  A
C401        C402   1.398       .  A
C401        H410   1.084       .  S
C402        C403   1.401       .  A
C402        H411   1.084       .  S
C403        C406   1.442       .  S
C403        C404   1.403       .  A
C404        C405   1.402       .  A
C404        H412   1.083       .  S
C405        H413   1.083       .  S
C406        C407   1.207       .  T
C408        C409   1.207       .  T
C414        C422   1.443       .  S
C414        C415   1.401       .  A
C414        C419   1.403       .  A
C415        C416   1.397       .  A
C415        H424   1.084       .  S
C416        C417   1.400       .  A
C416        H425   1.084       .  S
C417        C420   1.443       .  S
C417        C418   1.403       .  A
C418        C419   1.403       .  A
C418        H426   1.083       .  S
C419        H427   1.083       .  S
C420        C421   1.208       .  T
C422        C423   1.208       .  T
C428        C436   1.440       .  S
C428        C429   1.401       .  A
C428        C433   1.402       .  A
C429        C430   1.399       .  A
C429        H438   1.083       .  S
C430        C431   1.401       .  A
C430        H439   1.084       .  S
C431        C434   1.441       .  S
C431        C432   1.402       .  A
C432        C433   1.400       .  A
C432        H440   1.083       .  S
C433        H441   1.084       .  S
C434        C435   1.207       .  T
C436        C437   1.206       .  T
C442        C450   1.439       .  S
C442        C443   1.402       .  A
C442        C447   1.400       .  A
C443        C444   1.401       .  A
C443        H452   1.083       .  S
C444        C445   1.402       .  A
C444        H453   1.083       .  S
C445        C448   1.440       .  S
C445        C446   1.401       .  A
C446        C447   1.397       .  A
C446        H454   1.084       .  S
C447        H455   1.084       .  S
C448        C449   1.206       .  T
C450        C451   1.205       .  T
C456        C464   1.443       .  S
C456        C457   1.402       .  A
C456        C461   1.402       .  A
C457        C458   1.401       .  A
C457        H466   1.083       .  S
C458        C459   1.402       .  A
C458        H467   1.083       .  S
C459        C462   1.443       .  S
C459        C460   1.402       .  A
C460        C461   1.400       .  A
C460        H468   1.083       .  S
C461        H469   1.083       .  S
C462        C463   1.208       .  T
C464        C465   1.208       .  T
C470        C478   1.444       .  S
C470        C471   1.403       .  A
C470        C475   1.401       .  A
C471        C472   1.402       .  A
C471        H480   1.083       .  S
C472        C473   1.402       .  A
C472        H481   1.083       .  S
C473        C476   1.445       .  S
C473        C474   1.402       .  A
C474        C475   1.400       .  A
C474        H482   1.083       .  S
C475        H483   1.084       .  S
C476        C477   1.209       .  T
C478        C479   1.208       .  T
C484        C492   1.438       .  S
C484        C485   1.401       .  A
C484        C489   1.401       .  A
C485        C486   1.399       .  A
C485        H494   1.084       .  S
C486        C487   1.401       .  A
C486        H495   1.083       .  S
C487        C490   1.438       .  S
C487        C488   1.401       .  A
C488        C489   1.399       .  A
C488        H496   1.084       .  S
C489        H497   1.083       .  S
C490        C491   1.205       .  T
C492        C493   1.205       .  T
C498        C506   1.451       .  S
C498        C499   1.403       .  A
C498        C503   1.404       .  A
C499        C500   1.402       .  A
C499        H508   1.083       .  S
C500        C501   1.402       .  A
C500        H509   1.083       .  S
C501        C504   1.451       .  S
C501        C502   1.404       .  A
C502        C503   1.405       .  A
C502        H510   1.083       .  S
C503        H511   1.083       .  S
C504        C505   1.213       .  T
C506        C507   1.213       .  T
C512        C520   1.452       .  S
C512        C513   1.403       .  A
C512        C517   1.404       .  A
C513        C514   1.402       .  A
C513        H522   1.083       .  S
C514        C515   1.402       .  A
C514        H523   1.083       .  S
C515        C518   1.452       .  S
C515        C516   1.405       .  A
C516        C517   1.406       .  A
C516        H524   1.083       .  S
C517        H525   1.083       .  S
C518        C519   1.213       .  T
C520        C521   1.213       .  T
C526        C534   1.443       .  S
C526        C527   1.400       .  A
C526        C531   1.404       .  A
C527        C528   1.396       .  A
C527        H536   1.084       .  S
C528        C529   1.401       .  A
C528        H537   1.084       .  S
C529        C532   1.443       .  S
C529        C530   1.403       .  A
C530        C531   1.404       .  A
C530        H538   1.083       .  S
C531        H539   1.083       .  S
C532        C533   1.207       .  T
C534        C535   1.208       .  T
C540        C548   1.443       .  S
C540        C541   1.403       .  A
C540        C545   1.401       .  A
C541        C542   1.401       .  A
C541        H550   1.083       .  S
C542        C543   1.402       .  A
C542        H551   1.083       .  S
C543        C546   1.442       .  S
C543        C544   1.402       .  A
C544        C545   1.399       .  A
C544        H552   1.084       .  S
C545        H553   1.083       .  S
C546        C547   1.207       .  T
C548        C549   1.208       .  T
C554        C562   1.445       .  S
C554        C555   1.401       .  A
C554        C559   1.403       .  A
C555        C556   1.399       .  A
C555        H564   1.083       .  S
C556        C557   1.402       .  A
C556        H565   1.084       .  S
C557        C560   1.444       .  S
C557        C558   1.403       .  A
C558        C559   1.403       .  A
C558        H566   1.083       .  S
C559        H567   1.083       .  S
C560        C561   1.209       .  T
C562        C563   1.209       .  T
C568        C576   1.439       .  S
C568        C569   1.401       .  A
C568        C573   1.401       .  A
C569        C570   1.399       .  A
C569        H578   1.084       .  S
C570        C571   1.402       .  A
C570        H579   1.084       .  S
C571        C574   1.439       .  S
C571        C572   1.401       .  A
C572        C573   1.399       .  A
C572        H580   1.084       .  S
C573        H581   1.083       .  S
C574        C575   1.205       .  T
C576        C577   1.206       .  T
C582        C590   1.453       .  S
C582        C583   1.403       .  A
C582        C587   1.404       .  A
C583        C584   1.404       .  A
C583        H592   1.083       .  S
C584        C585   1.404       .  A
C584        H593   1.083       .  S
C585        C588   1.453       .  S
C585        C586   1.404       .  A
C586        C587   1.405       .  A
C586        H594   1.083       .  S
C587        H595   1.083       .  S
C588        C589   1.214       .  T
C590        C591   1.214       .  T
C596        C604   1.440       .  S
C596        C597   1.402       .  A
C596        C601   1.401       .  A
C597        C598   1.400       .  A
C597        H606   1.084       .  S
C598        C599   1.402       .  A
C598        H607   1.083       .  S
C599        C602   1.440       .  S
C599        C600   1.401       .  A
C600        C601   1.399       .  A
C600        H608   1.083       .  S
C601        H609   1.083       .  S
C602        C603   1.206       .  T
C604        C605   1.207       .  T
C610        C618   1.443       .  S
C610        C611   1.403       .  A
C610        C615   1.401       .  A
C611        C612   1.400       .  A
C611        H620   1.083       .  S
C612        C613   1.401       .  A
C612        H621   1.083       .  S
C613        C616   1.442       .  S
C613        C614   1.403       .  A
C614        C615   1.400       .  A
C614        H622   1.083       .  S
C615        H623   1.083       .  S
C616        C617   1.207       .  T
C618        C619   1.207       .  T
C624        C632   1.443       .  S
C624        C625   1.402       .  A
C624        C629   1.402       .  A
C625        C626   1.400       .  A
C625        H634   1.084       .  S
C626        C627   1.402       .  A
C626        H635   1.083       .  S
C627        C630   1.443       .  S
C627        C628   1.402       .  A
C628        C629   1.401       .  A
C628        H636   1.083       .  S
C629        H637   1.083       .  S
C630        C631   1.208       .  T
C632        C633   1.208       .  T
C638        C646   1.443       .  S
C638        C639   1.403       .  A
C638        C643   1.401       .  A
C639        C640   1.401       .  A
C639        H648   1.083       .  S
C640        C641   1.401       .  A
C640        H649   1.083       .  S
C641        C644   1.443       .  S
C641        C642   1.402       .  A
C642        C643   1.400       .  A
C642        H650   1.084       .  S
C643        H651   1.083       .  S
C644        C645   1.208       .  T
C646        C647   1.208       .  T
C652        C660   1.441       .  S
C652        C653   1.402       .  A
C652        C657   1.402       .  A
C653        C654   1.400       .  A
C653        H662   1.083       .  S
C654        C655   1.401       .  A
C654        H663   1.083       .  S
C655        C658   1.441       .  S
C655        C656   1.402       .  A
C656        C657   1.400       .  A
C656        H664   1.084       .  S
C657        H665   1.083       .  S
C658        C659   1.206       .  T
C660        C661   1.207       .  T
C666        C674   1.445       .  S
C666        C667   1.402       .  A
C666        C671   1.403       .  A
C667        C668   1.399       .  A
C667        H676   1.083       .  S
C668        C669   1.401       .  A
C668        H677   1.084       .  S
C669        C672   1.443       .  S
C669        C670   1.402       .  A
C670        C671   1.402       .  A
C670        H678   1.083       .  S
C671        H679   1.083       .  S
C672        C673   1.208       .  T
C674        C675   1.209       .  T
C680        C688   1.449       .  S
C680        C681   1.404       .  A
C680        C685   1.402       .  A
C681        C682   1.403       .  A
C681        H690   1.083       .  S
C682        C683   1.403       .  A
C682        H691   1.083       .  S
C683        C686   1.449       .  S
C683        C684   1.403       .  A
C684        C685   1.402       .  A
C684        H692   1.083       .  S
C685        H693   1.083       .  S
C686        C687   1.211       .  T
C688        C689   1.212       .  T
C694        C702   1.441       .  S
C694        C695   1.400       .  A
C694        C699   1.403       .  A
C695        C696   1.398       .  A
C695        H704   1.083       .  S
C696        C697   1.402       .  A
C696        H705   1.084       .  S
C697        C700   1.441       .  S
C697        C698   1.401       .  A
C698        C699   1.401       .  A
C698        H706   1.083       .  S
C699        H707   1.083       .  S
C700        C701   1.207       .  T
C702        C703   1.206       .  T
C708        C716   1.444       .  S
C708        C709   1.401       .  A
C708        C713   1.403       .  A
C709        C710   1.399       .  A
C709        H718   1.084       .  S
C710        C711   1.401       .  A
C710        H719   1.084       .  S
C711        C714   1.443       .  S
C711        C712   1.402       .  A
C712        C713   1.402       .  A
C712        H720   1.083       .  S
C713        H721   1.083       .  S
C714        C715   1.208       .  T
C716        C717   1.208       .  T
C722        C730   1.444       .  S
C722        C723   1.403       .  A
C722        C727   1.401       .  A
C723        C724   1.403       .  A
C723        H732   1.083       .  S
C724        C725   1.403       .  A
C724        H733   1.083       .  S
C725        C728   1.445       .  S
C725        C726   1.401       .  A
C726        C727   1.399       .  A
C726        H734   1.083       .  S
C727        H735   1.083       .  S
C728        C729   1.209       .  T
C730        C731   1.208       .  T
C736        C744   1.450       .  S
C736        C737   1.404       .  A
C736        C741   1.403       .  A
C737        C738   1.403       .  A
C737        H746   1.083       .  S
C738        C739   1.403       .  A
C738        H747   1.084       .  S
C739        C742   1.450       .  S
C739        C740   1.403       .  A
C740        C741   1.403       .  A
C740        H748   1.083       .  S
C741        H749   1.083       .  S
C742        C743   1.212       .  T
C744        C745   1.212       .  T
C750        C758   1.442       .  S
C750        C751   1.402       .  A
C750        C755   1.402       .  A
C751        C752   1.400       .  A
C751        H760   1.083       .  S
C752        C753   1.402       .  A
C752        H761   1.084       .  S
C753        C756   1.441       .  S
C753        C754   1.402       .  A
C754        C755   1.400       .  A
C754        H762   1.083       .  S
C755        H763   1.083       .  S
C756        C757   1.207       .  T
C758        C759   1.207       .  T
C764        C772   1.444       .  S
C764        C765   1.401       .  A
C764        C769   1.403       .  A
C765        C766   1.399       .  A
C765        H774   1.083       .  S
C766        C767   1.402       .  A
C766        H775   1.084       .  S
C767        C770   1.444       .  S
C767        C768   1.402       .  A
C768        C769   1.402       .  A
C768        H776   1.083       .  S
C769        H777   1.083       .  S
C770        C771   1.208       .  T
C772        C773   1.208       .  T
