geometry optimzed in LAMMPS
_audit_creation_date              2020-11-30 
_audit_creation_method            'lammps2cif' 
_symmetry_space_group_name_H-M    'P1' 
_symmetry_Int_Tables_number       1 
_symmetry_cell_setting            triclinic 
loop_ 
_symmetry_equiv_pos_as_xyz 
  x,y,z 
_cell_length_a                    45.13833816 
_cell_length_b                    45.170841282346906 
_cell_length_c                    45.3037462649457 
_cell_angle_alpha                 90.10866176076968 
_cell_angle_beta                  89.97319064978106 
_cell_angle_gamma                 89.96755496789869 
loop_ 
_atom_site_label 
_atom_site_type_symbol 
_atom_site_fract_x 
_atom_site_fract_y 
_atom_site_fract_z 
_atom_site_charge 
C1          C  0.49818263  0.40370331  0.07099003     0.43000
N2          N  0.48526542  0.43386651  0.03691546     0.01900
C3          C  0.57881335  0.52262144  0.95377783    -0.06000
H4          H  0.58123688  0.54762686  0.05963971     0.07400
C5          C  0.46764212  0.57494901  0.05460611    -0.06300
Co6        Co  0.53786547  0.45878131  0.00539142     0.74200
N7          N  0.55746661  0.51324493  0.03678911    -0.25500
Co8        Co  0.53369713  0.53528238  0.00414758     0.74100
C9          C  0.49358591  0.58868545  0.06820025     0.43100
N10         N  0.43381044  0.50710751  0.03351603     0.01500
N11         N  0.50791801  0.55759865  0.03527613     0.01600
N12         N  0.58108866  0.47258418  0.95559123    -0.46300
H13         H  0.54774197  0.41149090  0.06198134     0.07400
N14         N  0.55920938  0.48408096  0.03736190     0.01900
N15         N  0.50979832  0.55663945  0.97120313     0.01700
C16         C  0.49725922  0.58735564  0.93747082     0.43300
N17         N  0.43537031  0.47791578  0.03395453    -0.24900
C18         C  0.52762178  0.41476531  0.95395689    -0.05900
N19         N  0.47460038  0.41501618  0.05657711    -0.46100
N20         N  0.52062193  0.57602671  0.95215495    -0.46300
C21         C  0.50196368  0.40028215  0.94082557     0.43000
N22         N  0.56045750  0.48307827  0.97354375     0.01900
N23         N  0.43802241  0.47652447  0.97045995    -0.25000
N24         N  0.51450318  0.43504382  0.03712107    -0.25500
N25         N  0.43625188  0.50570676  0.96979107     0.01600
H26         H  0.41493347  0.44207410  0.94685272     0.07400
H27         H  0.44763243  0.57911059  0.94562313     0.07500
N28         N  0.55896294  0.51227590  0.97321060    -0.25500
N29         N  0.47870973  0.55610625  0.03448733    -0.25100
N30         N  0.48707920  0.43194434  0.97286891     0.01900
C31         C  0.59134602  0.49855892  0.06903601     0.43300
C32         C  0.41460285  0.46755797  0.05239469    -0.06400
N33         N  0.48060273  0.55524424  0.97056082    -0.25100
H34         H  0.44442085  0.57993696  0.05779823     0.07500
N35         N  0.57950983  0.47437013  0.05611351    -0.46300
H36         H  0.40921140  0.44446785  0.05567266     0.07400
C37         C  0.40603706  0.49106727  0.93630430     0.43100
C38         C  0.52469307  0.41654661  0.05784344    -0.05900
Co39       Co  0.46122932  0.45470741  0.00361076     0.73800
N40         N  0.41226984  0.51757169  0.05042953    -0.46100
C41         C  0.59347773  0.49624546  0.94232639     0.43400
N42         N  0.47761534  0.41154718  0.95406647    -0.46000
Co43       Co  0.45704120  0.53132433  0.00208767     0.73900
C44         C  0.47063498  0.57395193  0.94987855    -0.06400
C45         C  0.57660691  0.52436872  0.05643756    -0.05900
N46         N  0.51623258  0.43387703  0.97351867    -0.25500
N47         N  0.51767444  0.57730021  0.05463099    -0.46200
H48         H  0.58418577  0.54568007  0.95027913     0.07400
C49         C  0.41981404  0.46531023  0.94997320    -0.06400
Cl50       Cl  0.49744073  0.49502778  0.00385376    -0.49400
C51         C  0.39908453  0.49392045  0.06292685     0.43200
H52         H  0.55091969  0.40995546  0.95105820     0.07400
N53         N  0.41676633  0.51528445  0.95016632    -0.46100
N54         N  0.20803822  0.50558167  0.21539273    -0.02900
C55         C  0.23800488  0.50462294  0.21190219    -0.00300
C56         C  0.25209658  0.51071926  0.23833137    -0.23200
C57         C  0.23036563  0.51517840  0.25893427    -0.23400
C58         C  0.20368679  0.51206982  0.24438990    -0.00400
H59         H  0.27574096  0.51170042  0.24218081     0.13400
H60         H  0.23359507  0.52006306  0.28210858     0.13400
N61         N  0.78503757  0.51009101  0.21776494    -0.02900
C62         C  0.75496365  0.51012975  0.21471070    -0.00300
C63         C  0.74123233  0.50689926  0.24181621    -0.23200
C64         C  0.76317309  0.50496365  0.26243390    -0.23400
C65         C  0.78959678  0.50676894  0.24727611    -0.00400
H66         H  0.71765993  0.50563481  0.24602900     0.13400
H67         H  0.76027947  0.50208954  0.28597537     0.13400
N68         N  0.20859022  0.49367974  0.79155258    -0.02900
C69         C  0.20534486  0.49238306  0.76173629    -0.00300
C70         C  0.23247433  0.49275584  0.74768576    -0.23200
C71         C  0.25343812  0.49416686  0.76934269    -0.23400
C72         C  0.23844159  0.49441683  0.79593110    -0.00400
H73         H  0.23650569  0.49178657  0.72414805     0.13400
H74         H  0.27720089  0.49457559  0.76614112     0.13400
N75         N  0.78409937  0.47815440  0.79113620    -0.02900
C76         C  0.78802662  0.47976565  0.76142705    -0.00300
C77         C  0.76111733  0.47952927  0.74692713    -0.23200
C78         C  0.73969755  0.47784230  0.76822521    -0.23400
C79         C  0.75423731  0.47700253  0.79503818    -0.00400
H80         H  0.75751189  0.48098248  0.72335526     0.13400
H81         H  0.71598904  0.47783291  0.76464969     0.13400
N82         N  0.99483679  0.48816623  0.95807401    -0.36000
N83         N  0.94947046  0.49585952  0.00410660    -0.56600
N84         N  0.99606368  0.49563936  0.04940418    -0.36000
N85         N  0.04165369  0.49156396  0.00296598    -0.56600
C86         C  0.97029288  0.49008895  0.94091983     0.27500
C87         C  0.01886914  0.48937946  0.94010287     0.27500
C88         C  0.97235378  0.50302023  0.06637491     0.27500
C89         C  0.02090039  0.49971603  0.06578345     0.27500
C90         C  0.93131890  0.49143061  0.98067688     0.36200
C91         C  0.93200904  0.49717842  0.02842078     0.36200
C92         C  0.05888330  0.48693066  0.97883570     0.36200
C93         C  0.05934105  0.48881309  0.02699696     0.36200
C94         C  0.97886724  0.49214950  0.91160273    -0.21300
C95         C  0.00927093  0.49133697  0.91105061    -0.21300
C96         C  0.98236422  0.51121511  0.09417553    -0.21300
C97         C  0.01279372  0.50956859  0.09366360    -0.21300
C98         C  0.90216935  0.49015038  0.99022977    -0.22400
C99         C  0.90255015  0.49430411  0.02016492    -0.22400
C100        C  0.08783536  0.48176052  0.98774498    -0.22400
C101        C  0.08796506  0.48224580  0.01800323    -0.22400
C102        C  0.94026281  0.48929430  0.95061656    -0.17700
C103        C  0.04924052  0.48823776  0.94886144    -0.17700
C104        C  0.05065811  0.49372798  0.05688097    -0.17700
C105        C  0.94189269  0.50174362  0.05793377    -0.17700
H106        H  0.96472336  0.49392019  0.89240886     0.15200
H107        H  0.02264685  0.49197821  0.89125442     0.15200
H108        H  0.96924529  0.51771026  0.11308211     0.15200
H109        H  0.02725909  0.51479791  0.11198356     0.15200
H110        H  0.88245213  0.48675111  0.97710076     0.13500
H111        H  0.88309947  0.49512302  0.03407917     0.13500
H112        H  0.10713955  0.47796545  0.97414706     0.13500
H113        H  0.10723480  0.47855440  0.03169839     0.13500
H114        H  0.99508157  0.48539943  0.98058547     0.26700
H115        H  0.99532394  0.48701497  0.02832013     0.26700
C116        C  0.06141629  0.50713830  0.41117445     0.43000
N117        N  0.02908163  0.49088229  0.44183565     0.01900
C118        C  0.94404142  0.57477897  0.53905458    -0.06000
H119        H  0.05060225  0.57831290  0.56289318     0.07400
C120        C  0.05035423  0.46441632  0.58138115    -0.06300
Co121      Co  0.99640505  0.54010249  0.47183593     0.74200
N122        N  0.02781718  0.55674052  0.52708768    -0.25500
Co123      Co  0.99637058  0.53045747  0.54757287     0.74100
C124        C  0.06324883  0.48994176  0.59628816     0.43100
N125        N  0.03094029  0.43546906  0.51156412     0.01500
N126        N  0.02909622  0.50484205  0.56718302     0.01600
N127        N  0.94550838  0.58078979  0.48948712    -0.46300
H128        H  0.05135318  0.55558850  0.42342279     0.07400
N129        N  0.02818062  0.56045944  0.49819738     0.01900
N130        N  0.96481221  0.50339445  0.56733039     0.01700
C131        C  0.93124611  0.48704152  0.59642703     0.43300
N132        N  0.03053135  0.43905031  0.48265638    -0.24900
C133        C  0.94408345  0.53067074  0.42856874    -0.05900
N134        N  0.04807168  0.48238834  0.42116404    -0.46100
N135        N  0.94511698  0.51181704  0.58728293    -0.46300
C136        C  0.93159317  0.50546741  0.41288607     0.43000
N137        N  0.96412998  0.55992546  0.49820871     0.01900
N138        N  0.96632583  0.43694938  0.48308966    -0.25000
N139        N  0.02855158  0.51988663  0.44546805    -0.25500
N140        N  0.96678706  0.43328496  0.51198598     0.01600
H141        H  0.94283269  0.41432199  0.44818235     0.07400
H142        H  0.94151339  0.43861352  0.58423548     0.07500
N143        N  0.96402673  0.55623910  0.52711961    -0.25500
N144        N  0.02954349  0.47585405  0.56371755    -0.25100
N145        N  0.96475807  0.48984697  0.44277416     0.01900
C146        C  0.05956177  0.59175928  0.51476438     0.43300
C147        C  0.05148794  0.42183074  0.47061785    -0.06400
N148        N  0.96551509  0.47439338  0.56367102    -0.25100
H149        H  0.05470979  0.44109543  0.58458846     0.07500
N150        N  0.04664097  0.58161538  0.48988766    -0.46300
H151        H  0.05504974  0.41853120  0.44723351     0.07400
C152        C  0.93523885  0.40133674  0.49672343     0.43100
C153        C  0.04826377  0.53212017  0.42695498    -0.05900
Co154      Co  0.99759783  0.46394446  0.46220048     0.73800
N155        N  0.05086359  0.41576566  0.52012295    -0.46100
C156        C  0.93188270  0.59097525  0.51397935     0.43400
N157        N  0.94565202  0.48093544  0.42248448    -0.46000
Co158      Co  0.99820194  0.45439278  0.53798830     0.73900
C159        C  0.94495279  0.46209724  0.58112915    -0.06400
C160        C  0.04728453  0.57525759  0.53944708    -0.05900
N161        N  0.96457571  0.51887395  0.44638027    -0.25500
N162        N  0.04863521  0.51417606  0.58685416    -0.46200
H163        H  0.94059141  0.57840870  0.56240931     0.07400
C164        C  0.94662569  0.41793138  0.47147944    -0.06400
Cl165      Cl  0.99708800  0.49723108  0.50487856    -0.59300
C166        C  0.06510716  0.40661849  0.49555493     0.43200
H167        H  0.94031044  0.55407083  0.42520637     0.07400
N168        N  0.94884629  0.41197664  0.52098929    -0.46100
N169        N  0.50311988  0.78403369  0.21526882    -0.02900
C170        C  0.50448075  0.78750281  0.24512468    -0.00300
C171        C  0.50889057  0.76052714  0.25878064    -0.23200
C172        C  0.51085377  0.73973336  0.23685923    -0.23400
C173        C  0.50751947  0.75463282  0.21048304    -0.00400
H174        H  0.51065405  0.75648988  0.28225777     0.13400
H175        H  0.51430380  0.71620661  0.23977181     0.13400
N176        N  0.48012038  0.21072826  0.22021187    -0.02900
C177        C  0.48095821  0.24055107  0.21604767    -0.00300
C178        C  0.47629059  0.25537566  0.24233817    -0.23200
C179        C  0.47204814  0.23422569  0.26348753    -0.23400
C180        C  0.47425060  0.20716210  0.24940655    -0.00400
H181        H  0.47607850  0.27910462  0.24570805     0.13400
H182        H  0.46809381  0.23809652  0.28674286     0.13400
N183        N  0.50023678  0.20604478  0.79254661    -0.02900
C184        C  0.50164977  0.23574625  0.79724657    -0.00300
C185        C  0.50445688  0.25069098  0.77079798    -0.23200
C186        C  0.50521637  0.22965508  0.74901705    -0.23400
C187        C  0.50275814  0.20259699  0.76290712    -0.00400
H188        H  0.50575115  0.27441449  0.76774638     0.13400
H189        H  0.50711337  0.23359771  0.72553518     0.13400
N190        N  0.50546326  0.78682665  0.79499854    -0.02900
C191        C  0.50699469  0.79056088  0.76533951    -0.00300
C192        C  0.50627500  0.76364823  0.75087038    -0.23200
C193        C  0.50441425  0.74236160  0.77228758    -0.23400
C194        C  0.50414765  0.75703729  0.79905982    -0.00400
H195        H  0.50693725  0.75998477  0.72726205     0.13400
H196        H  0.50348699  0.71866850  0.76879835     0.13400
N197        N  0.49967355  0.04521056  0.00800232    -0.36000
N198        N  0.50621952  0.99923644  0.96200426    -0.56600
N199        N  0.50367108  0.95334867  0.00725383    -0.36000
N200        N  0.49343015  0.99913891  0.05279003    -0.56600
C201        C  0.49867205  0.06238963  0.98353852     0.27500
C202        C  0.49331471  0.06253658  0.03165887     0.27500
C203        C  0.50311963  0.93622225  0.98258831     0.27500
C204        C  0.49694222  0.93591214  0.03063567     0.27500
C205        C  0.51095474  0.02365796  0.94542058     0.36200
C206        C  0.51320684  0.97557660  0.94496587     0.36200
C207        C  0.49095269  0.02306213  0.07073971     0.36200
C208        C  0.49268215  0.97489739  0.07031027     0.36200
C209        C  0.49177411  0.09115347  0.99179411    -0.21300
C210        C  0.48902404  0.09138854  0.02198915    -0.21300
C211        C  0.49616966  0.90742556  0.99052748    -0.21300
C212        C  0.49279907  0.90711373  0.02069897    -0.21300
C213        C  0.52097867  0.01543867  0.91764899    -0.22400
C214        C  0.52249010  0.98508780  0.91739004    -0.22400
C215        C  0.48766228  0.01381847  0.09973263    -0.22400
C216        C  0.48884591  0.98349771  0.09947353    -0.22400
C217        C  0.50452132  0.05323531  0.95402068    -0.17700
C218        C  0.49167745  0.05324894  0.06170127    -0.17700
C219        C  0.49511530  0.94496071  0.06074928    -0.17700
C220        C  0.50972075  0.94544399  0.95321886    -0.17700
H221        H  0.48930168  0.11027477  0.97766590     0.15200
H222        H  0.48432998  0.11089408  0.03500689     0.15200
H223        H  0.49402983  0.88838795  0.97616089     0.15200
H224        H  0.48769412  0.88768178  0.03361408     0.15200
H225        H  0.52645886  0.02982401  0.89936402     0.13500
H226        H  0.52943726  0.97158603  0.89887936     0.13500
H227        H  0.48466000  0.02744283  0.11917529     0.13500
H228        H  0.48689587  0.96941760  0.11867390     0.13500
H229        H  0.50521783  0.02310167  0.00852537     0.26700
H230        H  0.50958382  0.97538779  0.00836009     0.26700
N231        N  0.20553013  0.78537823  0.51975810    -0.02900
C232        C  0.20118153  0.75573490  0.52228786    -0.00300
C233        C  0.22727001  0.74037680  0.51766130    -0.23200
C234        C  0.24863384  0.76107990  0.51220296    -0.23400
C235        C  0.23477421  0.78829174  0.51347649    -0.00400
H236        H  0.23025965  0.71659941  0.51781892     0.13400
H237        H  0.27178719  0.75683626  0.50761841     0.13400
N238        N  0.78096276  0.21065673  0.49857599    -0.02900
C239        C  0.75100861  0.20679484  0.49864260    -0.00300
C240        C  0.73663246  0.23372355  0.50065328    -0.23200
C241        C  0.75814996  0.25496859  0.50250817    -0.23400
C242        C  0.78502910  0.24036811  0.50151808    -0.00400
H243        H  0.71294257  0.23741647  0.50118097     0.13400
H244        H  0.75464104  0.27858698  0.50458330     0.13400
N245        N  0.20068219  0.20383591  0.50183199    -0.02900
C246        C  0.19790370  0.23303145  0.49521939    -0.00300
C247        C  0.22527155  0.24660019  0.49399134    -0.23200
C248        C  0.24585282  0.22512625  0.49965512    -0.23400
C249        C  0.23037726  0.19917692  0.50444744    -0.00400
H250        H  0.22971197  0.26967649  0.48937209     0.13400
H251        H  0.26965658  0.22798958  0.49994156     0.13400
N252        N  0.77647062  0.77911611  0.49867407    -0.02900
C253        C  0.74672309  0.78392152  0.49725026    -0.00300
C254        C  0.73189607  0.75772489  0.49164408    -0.23200
C255        C  0.75292529  0.73591392  0.49004507    -0.23400
C256        C  0.77996396  0.74953642  0.49431630    -0.00400
H257        H  0.70819941  0.75479278  0.48945885     0.13400
H258        H  0.74895032  0.71254475  0.48654917     0.13400
N259        N  0.94156524  0.99188080  0.50707587    -0.36000
N260        N  0.98684225  0.03845987  0.51019062    -0.56600
N261        N  0.03294723  0.99288726  0.51698717    -0.36000
N262        N  0.98776957  0.94623072  0.51378685    -0.56600
C263        C  0.92365601  0.01604489  0.50753279     0.27500
C264        C  0.92420487  0.96750850  0.50962851     0.27500
C265        C  0.05041775  0.01722876  0.51455754     0.27500
C266        C  0.05078849  0.96867065  0.51651335     0.27500
C267        C  0.96263826  0.05601941  0.50763567     0.36200
C268        C  0.01077937  0.05652355  0.51099772     0.36200
C269        C  0.96387949  0.92819676  0.51188553     0.36200
C270        C  0.01191544  0.92862152  0.51660122     0.36200
C271        C  0.89443213  0.00670233  0.50961219    -0.21300
C272        C  0.89481597  0.97635766  0.51135973    -0.21300
C273        C  0.07982410  0.00821714  0.51356704    -0.21300
C274        C  0.08000463  0.97787112  0.51421790    -0.21300
C275        C  0.97133580  0.08545823  0.50717768    -0.22400
C276        C  0.00161215  0.08575124  0.50877718    -0.22400
C277        C  0.97303512  0.89891728  0.51313026    -0.22400
C278        C  0.00311719  0.89919831  0.51689497    -0.22400
C279        C  0.93266849  0.04628991  0.50592590    -0.17700
C280        C  0.93373502  0.93740460  0.51033006    -0.17700
C281        C  0.04189750  0.93838378  0.51815404    -0.17700
C282        C  0.04092187  0.04738015  0.51310515    -0.17700
H283        H  0.87461650  0.02014543  0.50997146     0.15200
H284        H  0.87544364  0.96246439  0.51372565     0.15200
H285        H  0.09944836  0.02186006  0.51237209     0.15200
H286        H  0.09966941  0.96422001  0.51307027     0.15200
H287        H  0.95743074  0.10491036  0.50575468     0.13500
H288        H  0.01519166  0.10545692  0.50830533     0.13500
H289        H  0.95950981  0.87919467  0.51198903     0.13500
H290        H  0.01676669  0.87969531  0.51943394     0.13500
H291        H  0.96424705  0.99194128  0.50441157     0.26700
H292        H  0.01024057  0.99284170  0.51938667     0.26700
C293        C  0.49925122  0.93349038  0.40998057     0.43000
N294        N  0.48347349  0.96396166  0.44271407     0.01900
C295        C  0.56819371  0.05409258  0.53352775    -0.06000
H296        H  0.58163740  0.94655775  0.55494477     0.07400
C297        C  0.46905317  0.94061939  0.58357490    -0.06300
Co298      Co  0.53229832  0.00006877  0.46855853     0.74200
N299        N  0.55582139  0.96926203  0.52187651    -0.25500
Co300      Co  0.52880724  0.99877594  0.54500237     0.74100
C301        C  0.49625379  0.92977360  0.59710473     0.43100
N302        N  0.43408270  0.95804381  0.51627278     0.01500
N303        N  0.50699022  0.96442204  0.56664946     0.01600
N304        N  0.57035862  0.05364541  0.48372504    -0.46300
H305        H  0.54783492  0.94635762  0.41868112     0.07400
N306        N  0.55705942  0.96965030  0.49274171     0.01900
N307        N  0.50108463  0.02835799  0.56708199     0.01700
C308        C  0.48459237  0.06033930  0.59784796     0.43300
N309        N  0.43544846  0.95878452  0.48721151    -0.24900
C310        C  0.51483862  0.05149439  0.42584780    -0.05900
N311        N  0.47461542  0.94470000  0.42257268    -0.46100
N312        N  0.50957246  0.04852175  0.58651515    -0.46300
C313        C  0.48721562  0.06140129  0.41222087     0.43000
N314        N  0.55155014  0.03355221  0.49370047     0.01900
N315        N  0.42870852  0.02236951  0.48817715    -0.25000
N316        N  0.51255396  0.96652309  0.44385078    -0.25500
N317        N  0.42709558  0.02175394  0.51725043     0.01600
H318        H  0.40245731  0.04416625  0.45486408     0.07400
H319        H  0.43623872  0.04663231  0.58955102     0.07500
N320        N  0.55027386  0.03298545  0.52280334    -0.25500
N321        N  0.47790900  0.96197154  0.56512519    -0.25100
N322        N  0.47747866  0.02767557  0.44386815     0.01900
C323        C  0.59128429  0.93943079  0.50547283     0.43300
C324        C  0.41880178  0.93690277  0.47627059    -0.06400
N325        N  0.47198295  0.02561225  0.56574261    -0.25100
H326        H  0.44629203  0.93498848  0.58849058     0.07500
N327        N  0.57803293  0.95216031  0.48203820    -0.46300
H328        H  0.41395225  0.93333308  0.45315714     0.07400
C329        C  0.39214497  0.05101752  0.50415773     0.43100
C330        C  0.52456507  0.94774300  0.42421720    -0.05900
Co331      Co  0.45608265  0.99323353  0.46521772     0.73800
N332        N  0.41640849  0.93692254  0.52609612    -0.46100
C333        C  0.58125396  0.06800881  0.50750958     0.43400
N334        N  0.46510710  0.04556569  0.42438558    -0.46000
Co335      Co  0.45242784  0.99183816  0.54138270     0.73900
C336        C  0.45959820  0.04500298  0.58447227    -0.06400
C337        C  0.57640368  0.95041540  0.53197355    -0.05900
N338        N  0.50659056  0.03031528  0.44488853    -0.25500
N339        N  0.51879552  0.94602635  0.58610246    -0.46200
H340        H  0.57359625  0.05731365  0.55656850     0.07400
C341        C  0.40775203  0.04067735  0.47787835    -0.06400
Cl342      Cl  0.49242868  0.99604301  0.50504781    -0.49400
C343        C  0.40636500  0.92234419  0.50211950     0.43200
H344        H  0.53742331  0.05720365  0.42027646     0.07400
N345        N  0.40526195  0.03832370  0.52771511    -0.46100
C346        C  0.68845862  0.83837888  0.52225269    -0.21900
C347        C  0.69154312  0.86067915  0.50119729     0.10100
C348        C  0.71580801  0.86012474  0.48151704     0.10500
C349        C  0.73530293  0.83574947  0.48193807    -0.16800
C350        C  0.73077402  0.81223052  0.50166519    -0.27200
C351        C  0.70778468  0.81426893  0.52291508     0.18800
C352        C  0.66755543  0.88288923  0.49934409     0.12800
C353        C  0.72053726  0.88479229  0.45974294    -0.11600
H354        H  0.75306069  0.83429847  0.46588849     0.13100
C355        C  0.70272936  0.79136579  0.54659940    -0.22400
H356        H  0.67015504  0.83932722  0.53775811     0.08700
C357        C  0.64213013  0.87751902  0.48202514     0.05000
C358        C  0.61794957  0.89694046  0.48399280    -0.19700
C359        C  0.61834623  0.92117064  0.50338869    -0.11900
C360        C  0.64431674  0.92711329  0.51999888     0.13700
C361        C  0.66844241  0.90759272  0.51800183    -0.22400
C362        C  0.64014606  0.85070695  0.46227108    -0.05400
H363        H  0.59820368  0.89261958  0.47106177     0.15300
C364        C  0.64800666  0.95409392  0.53928592    -0.15600
H365        H  0.68802454  0.91150662  0.53130847     0.09600
H366        H  0.68067778  0.78095518  0.54345026     0.07500
H367        H  0.70328877  0.80227187  0.56858285     0.08700
H368        H  0.71973426  0.77369659  0.54685998     0.07700
H369        H  0.72335172  0.90603976  0.47178139     0.02600
H370        H  0.70113920  0.88657466  0.44481059     0.03100
H371        H  0.74059796  0.88100324  0.44603517     0.06600
H372        H  0.61866830  0.84977212  0.45035106     0.05500
H373        H  0.64226691  0.83024820  0.47565190    -0.00200
H374        H  0.65818051  0.85126394  0.44563095     0.01300
H375        H  0.65019014  0.94718509  0.56269307     0.04900
H376        H  0.62956579  0.97008103  0.53740395     0.06900
H377        H  0.66841628  0.96610570  0.53268646     0.07700
C378        C  0.82122075  0.84493505  0.52443815    -0.21900
C379        C  0.84484963  0.84434929  0.50432213     0.10100
C380        C  0.84750426  0.82017174  0.48470041     0.10500
C381        C  0.82423980  0.79965724  0.48274004    -0.16800
C382        C  0.80002677  0.80059370  0.50229027    -0.27200
C383        C  0.79977223  0.82243563  0.52475957     0.18800
C384        C  0.86729719  0.86837876  0.50550049     0.12800
C385        C  0.87560376  0.81471137  0.46746142    -0.11600
H386        H  0.82523320  0.78237654  0.46617473     0.13100
C387        C  0.77887007  0.82147281  0.55057239    -0.22400
H388        H  0.82021666  0.86243082  0.54083292     0.08700
C389        C  0.87009198  0.88947691  0.48266215     0.05000
C390        C  0.89239272  0.91111264  0.48454214    -0.19700
C391        C  0.91030814  0.91380836  0.50980024    -0.11900
C392        C  0.90546941  0.89427655  0.53381182     0.13700
C393        C  0.88481618  0.87124229  0.53088915    -0.22400
C394        C  0.84838272  0.89052660  0.45735025    -0.05400
H395        H  0.89533082  0.92665325  0.46657643     0.15300
C396        C  0.92124992  0.89731369  0.56297898    -0.15600
H397        H  0.88181184  0.85577212  0.54892073     0.09600
H398        H  0.76367858  0.84079718  0.54986106     0.07500
H399        H  0.79174862  0.82234003  0.57143714     0.08700
H400        H  0.76594062  0.80070356  0.55120186     0.07700
H401        H  0.89439596  0.81220142  0.48306719     0.02600
H402        H  0.88058235  0.83322060  0.45232191     0.03100
H403        H  0.87416240  0.79412929  0.45407636     0.06600
H404        H  0.85312980  0.90924964  0.44221568     0.05500
H405        H  0.82561293  0.89351550  0.46614976    -0.00200
H406        H  0.84901316  0.86990939  0.44416599     0.01300
H407        H  0.90465990  0.89950482  0.58095591     0.04900
H408        H  0.93580710  0.91701655  0.56406018     0.06900
H409        H  0.93488060  0.87726500  0.56707010     0.07700
C410        C  0.31477849  0.07917554  0.52304864    -0.21900
C411        C  0.31321274  0.10433376  0.50511317     0.10100
C412        C  0.33741516  0.11171457  0.48677882     0.10500
C413        C  0.36252468  0.09341558  0.48645742    -0.16800
C414        C  0.36454796  0.06867029  0.50497310    -0.27200
C415        C  0.34023238  0.06124070  0.52332796     0.18800
C416        C  0.28757206  0.12455134  0.50812042     0.12800
C417        C  0.33727154  0.13955941  0.46847763    -0.11600
H418        H  0.38114173  0.09904779  0.47242495     0.13100
C419        C  0.34061175  0.03417503  0.54271793    -0.22400
H420        H  0.29620794  0.07392843  0.53728729     0.08700
C421        C  0.26413887  0.12503782  0.48749053     0.05000
C422        C  0.24336945  0.14825946  0.48856028    -0.19700
C423        C  0.24577802  0.17079340  0.50978659    -0.11900
C424        C  0.26773531  0.16859257  0.53203145     0.13700
C425        C  0.28831546  0.14547705  0.53087353    -0.22400
C426        C  0.26159006  0.10155530  0.46400353    -0.05400
H427        H  0.22655041  0.14995597  0.47157640     0.15300
C428        C  0.27073516  0.19071966  0.55683450    -0.15600
H429        H  0.30600262  0.14460223  0.54705234     0.09600
H430        H  0.31913050  0.03098050  0.55425213     0.07500
H431        H  0.35801959  0.03640588  0.55984996     0.08700
H432        H  0.34492205  0.01417339  0.52910528     0.07700
H433        H  0.33480399  0.15915507  0.48310774     0.02600
H434        H  0.31863697  0.13909902  0.45255290     0.03100
H435        H  0.35814955  0.14215546  0.45575806     0.06600
H436        H  0.24198718  0.10524368  0.44966019     0.05500
H437        H  0.25928306  0.07952548  0.47457544    -0.00200
H438        H  0.28162115  0.10147591  0.44982042     0.01300
H439        H  0.26911222  0.17902436  0.57831286     0.04900
H440        H  0.25334172  0.20801309  0.55658003     0.06900
H441        H  0.29265064  0.20177949  0.55542867     0.07700
C442        C  0.08890381  0.11507420  0.53127688    -0.21900
C443        C  0.10823609  0.11571187  0.50699614     0.10100
C444        C  0.10663802  0.09275725  0.48578479     0.10500
C445        C  0.08351061  0.07199333  0.48748057    -0.16800
C446        C  0.06430446  0.07106329  0.51193181    -0.27200
C447        C  0.06784295  0.09243005  0.53464407     0.18800
C448        C  0.13130835  0.13927594  0.50560234     0.12800
C449        C  0.13076640  0.08829713  0.46310780    -0.11600
H450        H  0.08136534  0.05528261  0.47041310     0.13100
C451        C  0.05015749  0.09182666  0.56287780    -0.22400
H452        H  0.09087011  0.13192651  0.54824244     0.08700
C453        C  0.13166436  0.16095819  0.48311686     0.05000
C454        C  0.15539687  0.18107605  0.48175082    -0.19700
C455        C  0.17690781  0.18242012  0.50415637    -0.11900
C456        C  0.17401013  0.16331505  0.52873513     0.13700
C457        C  0.15230684  0.14104940  0.52837362    -0.22400
C458        C  0.10589174  0.16474926  0.46223297    -0.05400
H459        H  0.15670260  0.19649390  0.46352410     0.15300
C460        C  0.19177696  0.16712613  0.55655189    -0.15600
H461        H  0.15097189  0.12567651  0.54668316     0.09600
H462        H  0.03670219  0.11233775  0.56468314     0.07500
H463        H  0.06551079  0.09071900  0.58198805     0.08700
H464        H  0.03511680  0.07251889  0.56437353     0.07700
H465        H  0.15226748  0.08510520  0.47456416     0.02600
H466        H  0.13282508  0.10745764  0.44813598     0.03100
H467        H  0.12661297  0.06839575  0.44928079     0.06600
H468        H  0.10950128  0.18351967  0.44683858     0.05500
H469        H  0.08553951  0.16948214  0.47517880    -0.00200
H470        H  0.10197166  0.14470122  0.44879476     0.01300
H471        H  0.17650232  0.16903527  0.57569482     0.04900
H472        H  0.20521894  0.18755989  0.55636062     0.06900
H473        H  0.20640090  0.14764853  0.55984869     0.07700
C474        C  0.71127174  0.13641071  0.52150405    -0.21900
C475        C  0.68980464  0.13478065  0.49918328     0.10100
C476        C  0.69158865  0.15403041  0.47478252     0.10500
C477        C  0.71385057  0.17558985  0.47409525    -0.16800
C478        C  0.73425971  0.17862963  0.49730072    -0.27200
C479        C  0.73338558  0.15833847  0.52105940     0.18800
C480        C  0.66334839  0.11589070  0.50350432     0.12800
C481        C  0.66892756  0.15306102  0.45033698    -0.11600
H482        H  0.71430900  0.19139070  0.45610901     0.13100
C483        C  0.75378003  0.16040273  0.54729074    -0.22400
H484        H  0.70965340  0.12165654  0.54028559     0.08700
C485        C  0.66051981  0.08804564  0.48975139     0.05000
C486        C  0.63328429  0.07312305  0.49122955    -0.19700
C487        C  0.60915280  0.08503093  0.50690303    -0.11900
C488        C  0.61252466  0.11229948  0.52190076     0.13700
C489        C  0.63959582  0.12742684  0.51987900    -0.22400
C490        C  0.68633533  0.07393512  0.47401624    -0.05400
H491        H  0.63091804  0.05183432  0.48039739     0.15300
C492        C  0.58787409  0.12668081  0.53922952    -0.15600
H493        H  0.64194669  0.14884512  0.53048143     0.09600
H494        H  0.76742111  0.13998455  0.54864878     0.07500
H495        H  0.74046140  0.16255137  0.56779439     0.08700
H496        H  0.76884001  0.17966792  0.54639061     0.07700
H497        H  0.64647346  0.15713448  0.45949272     0.02600
H498        H  0.66926660  0.13110430  0.43936937     0.03100
H499        H  0.67333734  0.17009434  0.43324341     0.06600
H500        H  0.68043462  0.05189819  0.46483172     0.05500
H501        H  0.70493326  0.07091982  0.48976057    -0.00200
H502        H  0.69388191  0.08813076  0.45555654     0.01300
H503        H  0.59470754  0.12903448  0.56265914     0.04900
H504        H  0.56688455  0.11403191  0.53854710     0.06900
H505        H  0.58331397  0.14901585  0.53008950     0.07700
C506        C  0.88632777  0.11141778  0.47767976    -0.21900
C507        C  0.86719818  0.11645055  0.50157682     0.10100
C508        C  0.86764750  0.09664226  0.52570035     0.10500
C509        C  0.88961535  0.07456970  0.52693488    -0.16800
C510        C  0.90913524  0.06969968  0.50319926    -0.27200
C511        C  0.90654542  0.08775775  0.47773453     0.18800
C512        C  0.84607673  0.14176387  0.50020072     0.12800
C513        C  0.84376923  0.09734036  0.54902379    -0.11600
H514        H  0.89102513  0.06039232  0.54615738     0.13100
C515        C  0.92471024  0.08272128  0.45024323    -0.22400
H516        H  0.88519841  0.12585880  0.45861791     0.08700
C517        C  0.84873012  0.16662265  0.51902007     0.05000
C518        C  0.82675263  0.18866737  0.51838584    -0.19700
C519        C  0.80378351  0.18808571  0.49743313    -0.11900
C520        C  0.80365675  0.16517800  0.47602372     0.13700
C521        C  0.82387014  0.14165255  0.47855057    -0.22400
C522        C  0.87562308  0.17099231  0.53831649    -0.05400
H523        H  0.82763254  0.20662307  0.53422047     0.15300
C524        C  0.78399840  0.16576398  0.44922215    -0.15600
H525        H  0.82292400  0.12351842  0.46286068     0.09600
H526        H  0.93885405  0.10237143  0.44603537     0.07500
H527        H  0.90967705  0.07944826  0.43112123     0.08700
H528        H  0.93915327  0.06293809  0.45167223     0.07700
H529        H  0.82185834  0.09394676  0.53841410     0.02600
H530        H  0.84337657  0.11873883  0.56090919     0.03100
H531        H  0.84692807  0.07955488  0.56562299     0.06600
H532        H  0.87452532  0.19223537  0.55066477     0.05500
H533        H  0.89578437  0.17145917  0.52427684    -0.00200
H534        H  0.87798859  0.15295361  0.55460869     0.01300
H535        H  0.79783136  0.16373689  0.42903885     0.04900
H536        H  0.77150931  0.18676244  0.44717213     0.06900
H537        H  0.76829599  0.14686964  0.44994154     0.07700
C538        C  0.28914630  0.84196926  0.48174563    -0.21900
C539        C  0.29780472  0.85677671  0.50745178     0.10100
C540        C  0.28146809  0.85321308  0.53374697     0.10500
C541        C  0.25808824  0.83278369  0.53433167    -0.16800
C542        C  0.25116825  0.81599971  0.50923101    -0.27200
C543        C  0.26593657  0.82154813  0.48230184     0.18800
C544        C  0.32567617  0.87361921  0.50677710     0.12800
C545        C  0.28956311  0.87000150  0.56133497    -0.11600
H546        H  0.24674867  0.82823943  0.55493380     0.13100
C547        C  0.25844915  0.80543317  0.45411908    -0.22400
H548        H  0.30153490  0.84526775  0.46149702     0.08700
C549        C  0.35291277  0.85984104  0.51361875     0.05000
C550        C  0.37912574  0.87627416  0.51168635    -0.19700
C551        C  0.37852713  0.90580850  0.50256910    -0.11900
C552        C  0.35127130  0.91961086  0.49567216     0.13700
C553        C  0.32503798  0.90322483  0.49785422    -0.22400
C554        C  0.35428817  0.82778367  0.52268415    -0.05400
H555        H  0.40015624  0.86606035  0.51716933     0.15300
C556        C  0.34971688  0.95167652  0.48659140    -0.15600
H557        H  0.30397039  0.91342735  0.49251908     0.09600
H558        H  0.27783557  0.79218172  0.44677834     0.07500
H559        H  0.25287002  0.82178477  0.43671322     0.08700
H560        H  0.23916975  0.79042978  0.45656253     0.07700
H561        H  0.28788233  0.89414868  0.55713031     0.02600
H562        H  0.31258711  0.86460862  0.56802466     0.03100
H563        H  0.27460573  0.86443872  0.57998969     0.06600
H564        H  0.37738675  0.82054597  0.52709384     0.05500
H565        H  0.34517078  0.81363492  0.50480679    -0.00200
H566        H  0.34114443  0.82433688  0.54309013     0.01300
H567        H  0.36171808  0.95494927  0.46547848     0.04900
H568        H  0.35982066  0.96581611  0.50393805     0.06900
H569        H  0.32649484  0.95911163  0.48330243     0.07700
C570        C  0.10955370  0.89324595  0.54284724    -0.21900
C571        C  0.11221005  0.87270388  0.51971565     0.10100
C572        C  0.09019717  0.87203794  0.49755301     0.10500
C573        C  0.06865347  0.89451403  0.49677823    -0.16800
C574        C  0.06591185  0.91526689  0.51984785    -0.27200
C575        C  0.08602718  0.91362924  0.54387170     0.18800
C576        C  0.13732532  0.85126238  0.52003475     0.12800
C577        C  0.08772267  0.84632307  0.47636359    -0.11600
H578        H  0.05291170  0.89507877  0.47873120     0.13100
C579        C  0.08317829  0.93267649  0.57109206    -0.22400
H580        H  0.12560518  0.89291217  0.56064603     0.08700
C581        C  0.16000211  0.85184767  0.49847502     0.05000
C582        C  0.18196502  0.82975252  0.49871983    -0.19700
C583        C  0.18355073  0.80873432  0.52150467    -0.11900
C584        C  0.16296805  0.81069221  0.54505919     0.13700
C585        C  0.13941747  0.83096230  0.54333920    -0.22400
C586        C  0.16233794  0.87678021  0.47645850    -0.05400
H587        H  0.19816213  0.82901422  0.48110915     0.15300
C588        C  0.16613874  0.79313380  0.57305377    -0.15600
H589        H  0.12304262  0.83157730  0.56085291     0.09600
H590        H  0.10301011  0.94705292  0.57321982     0.07500
H591        H  0.08165873  0.91828738  0.59088178     0.08700
H592        H  0.06317537  0.94688712  0.57089720     0.07700
H593        H  0.08458710  0.82557199  0.48909028     0.02600
H594        H  0.10778570  0.84390699  0.46257687     0.03100
H595        H  0.06845751  0.84885786  0.46133239     0.06600
H596        H  0.18207294  0.87421659  0.46201821     0.05500
H597        H  0.16448341  0.89811329  0.48847023    -0.00200
H598        H  0.14262665  0.87797428  0.46204438     0.01300
H599        H  0.16595286  0.80841735  0.59228253     0.04900
H600        H  0.18733904  0.78089470  0.57400615     0.06900
H601        H  0.14736313  0.77741779  0.57521289     0.07700
C602        C  0.53128044  0.84717266  0.70993881    -0.21900
C603        C  0.50429076  0.86139508  0.70427520     0.10100
C604        C  0.47965179  0.85587328  0.72268207     0.10500
C605        C  0.48203723  0.83460607  0.74513952    -0.16800
C606        C  0.50844228  0.81882480  0.74929889    -0.27200
C607        C  0.53369620  0.82602899  0.73235786     0.18800
C608        C  0.50174389  0.87974870  0.67735380     0.12800
C609        C  0.45071973  0.87184007  0.71809612    -0.11600
H610        H  0.46269393  0.82880072  0.75808934     0.13100
C611        C  0.56319664  0.81103514  0.73679082    -0.22400
H612        H  0.55024684  0.85164577  0.69594022     0.08700
C613        C  0.51548435  0.90766342  0.67507994     0.05000
C614        C  0.51376282  0.92322505  0.64834771    -0.19700
C615        C  0.49826675  0.91164370  0.62404426    -0.11900
C616        C  0.48419819  0.88377879  0.62649699     0.13700
C617        C  0.48629193  0.86815136  0.65310883    -0.22400
C618        C  0.53135156  0.92124663  0.70101636    -0.05400
H619        H  0.52408124  0.94481887  0.64658736     0.15300
C620        C  0.46760544  0.86934092  0.60142387    -0.15600
H621        H  0.47607992  0.84649475  0.65487142     0.09600
H622        H  0.58031162  0.82800555  0.74164468     0.07500
H623        H  0.56951812  0.79892435  0.71639039     0.08700
H624        H  0.56304865  0.79515041  0.75542745     0.07700
H625        H  0.44158654  0.86657926  0.69596994     0.02600
H626        H  0.45433384  0.89609182  0.71985464     0.03100
H627        H  0.43396490  0.86536702  0.73483988     0.06600
H628        H  0.53995187  0.94366209  0.69577448     0.05500
H629        H  0.55040109  0.90716950  0.70751398    -0.00200
H630        H  0.51585010  0.92327685  0.71995659     0.01300
H631        H  0.47731018  0.84721130  0.59684009     0.04900
H632        H  0.46856683  0.88206609  0.58060171     0.06900
H633        H  0.44399796  0.86651457  0.60772402     0.07700
C634        C  0.48539651  0.83532755  0.85993162    -0.21900
C635        C  0.50978369  0.85459554  0.86115390     0.10100
C636        C  0.53251531  0.85158722  0.83983543     0.10500
C637        C  0.53061181  0.82900129  0.81845200    -0.16800
C638        C  0.50615228  0.80984092  0.81721966    -0.27200
C639        C  0.48275242  0.81386310  0.83758468     0.18800
C640        C  0.51025257  0.87845578  0.88410832     0.12800
C641        C  0.55834580  0.87266369  0.83903610    -0.11600
H642        H  0.54826146  0.82625826  0.80247595     0.13100
C643        C  0.45395050  0.79730812  0.83520691    -0.22400
H644        H  0.46768535  0.83780044  0.87592152     0.08700
C645        C  0.48962035  0.90202925  0.88373819     0.05000
C646        C  0.48995757  0.92321421  0.90654919    -0.19700
C647        C  0.51119461  0.92232956  0.92924549    -0.11900
C648        C  0.53284053  0.89954726  0.92870858     0.13700
C649        C  0.53156353  0.87754134  0.90667704    -0.22400
C650        C  0.46773614  0.90540034  0.85884337    -0.05400
H651        H  0.47361710  0.94080878  0.90660540     0.15300
C652        C  0.55786392  0.89800849  0.95065785    -0.15600
H653        H  0.54757386  0.85964507  0.90695398     0.09600
H654        H  0.43535441  0.81337340  0.83407507     0.07500
H655        H  0.45091613  0.78307398  0.85492330     0.08700
H656        H  0.45266470  0.78351429  0.81502606     0.07700
H657        H  0.57148263  0.87078744  0.85962202     0.02600
H658        H  0.55012341  0.89571504  0.83670507     0.03100
H659        H  0.57336048  0.86792059  0.82017397     0.06600
H660        H  0.45431832  0.92588430  0.86121830     0.05500
H661        H  0.45224163  0.88637656  0.85838142    -0.00200
H662        H  0.47977802  0.90659657  0.83749443     0.01300
H663        H  0.55609803  0.87724216  0.96361041     0.04900
H664        H  0.55812233  0.91696384  0.96620250     0.06900
H665        H  0.57933573  0.89806281  0.93868530     0.07700
C666        C  0.52033185  0.14527836  0.70542591    -0.21900
C667        C  0.49260311  0.13180420  0.70229615     0.10100
C668        C  0.46991454  0.13784808  0.72285596     0.10500
C669        C  0.47476048  0.15927939  0.74482903    -0.16800
C670        C  0.50177128  0.17452274  0.74638737    -0.27200
C671        C  0.52528547  0.16644869  0.72741445     0.18800
C672        C  0.48748449  0.11319368  0.67599234     0.12800
C673        C  0.44034208  0.12262053  0.72073003    -0.11600
H674        H  0.45682747  0.16558240  0.75948183     0.13100
C675        C  0.55562430  0.18022429  0.72946153    -0.22400
H676        H  0.53789224  0.14000777  0.68992945     0.08700
C677        C  0.48002023  0.12608499  0.64859425     0.05000
C678        C  0.47828200  0.10810065  0.62340858    -0.19700
C679        C  0.48395787  0.07772177  0.62519729    -0.11900
C680        C  0.49018654  0.06460453  0.65278824     0.13700
C681        C  0.49201502  0.08260674  0.67797703    -0.22400
C682        C  0.47431250  0.15884086  0.64593069    -0.05400
H683        H  0.47322849  0.11784996  0.60214551     0.15300
C684        C  0.49484411  0.03169205  0.65562624    -0.15600
H685        H  0.49752832  0.07295335  0.69916400     0.09600
H686        H  0.56056585  0.19243659  0.70879423     0.07500
H687        H  0.57244083  0.16253338  0.73246318     0.08700
H688        H  0.55777764  0.19569811  0.74836941     0.07700
H689        H  0.44342651  0.09832996  0.72284968     0.02600
H690        H  0.42993910  0.12752944  0.69908363     0.03100
H691        H  0.42499650  0.13003758  0.73843505     0.06600
H692        H  0.46845490  0.16518177  0.62298393     0.05500
H693        H  0.49441884  0.17139737  0.65241937    -0.00200
H694        H  0.45565519  0.16526861  0.66058126     0.01300
H695        H  0.51422038  0.02469293  0.64223785     0.04900
H696        H  0.47481160  0.01979377  0.64777170     0.06900
H697        H  0.49897368  0.02510808  0.67887627     0.07700
C698        C  0.47993077  0.09657115  0.88598749    -0.21900
C699        C  0.50148812  0.11881593  0.88470992     0.10100
C700        C  0.52322072  0.12055082  0.90709059     0.10500
C701        C  0.52415524  0.09859056  0.92903829    -0.16800
C702        C  0.50275079  0.07602296  0.93015193    -0.27200
C703        C  0.47986659  0.07555388  0.90873688     0.18800
C704        C  0.50049391  0.14026962  0.85994916     0.12800
C705        C  0.54448497  0.14625164  0.90861760    -0.11600
H706        H  0.54123700  0.09934903  0.94583032     0.13100
C707        C  0.45476510  0.05354689  0.90940763    -0.22400
H708        H  0.46280368  0.09579274  0.86922472     0.08700
C709        C  0.52054189  0.13844635  0.83608843     0.05000
C710        C  0.51974536  0.16021611  0.81403962    -0.19700
C711        C  0.49825955  0.18273173  0.81427515    -0.11900
C712        C  0.47612452  0.18240900  0.83639868     0.13700
C713        C  0.47813406  0.16184191  0.85953140    -0.22400
C714        C  0.54198630  0.11298481  0.83326160    -0.05400
H715        H  0.53618642  0.15990009  0.79662349     0.15300
C716        C  0.44934785  0.20222180  0.83538666    -0.15600
H717        H  0.46172449  0.16217414  0.87701747     0.09600
H718        H  0.45543045  0.03970394  0.88914182     0.07500
H719        H  0.43333555  0.06561032  0.91015617     0.08700
H720        H  0.45540508  0.03870721  0.92882418     0.07700
H721        H  0.53181584  0.16722766  0.91073632     0.02600
H722        H  0.55832921  0.14738503  0.88846931     0.03100
H723        H  0.55954295  0.14446458  0.92791534     0.06600
H724        H  0.55539601  0.11459901  0.81276453     0.05500
H725        H  0.52949407  0.09182796  0.83250607    -0.00200
H726        H  0.55743153  0.11239400  0.85222772     0.01300
H727        H  0.42897403  0.18847608  0.83618710     0.04900
H728        H  0.44821626  0.21538508  0.81481165     0.06900
H729        H  0.44945403  0.21738404  0.85470244     0.07700
C730        C  0.45126264  0.15127803  0.30639438    -0.21900
C731        C  0.47710954  0.13429037  0.30830665     0.10100
C732        C  0.49939620  0.13732942  0.28665354     0.10500
C733        C  0.49691061  0.16000781  0.26564507    -0.16800
C734        C  0.47222678  0.17887800  0.26553016    -0.27200
C735        C  0.44829564  0.17321380  0.28486971     0.18800
C736        C  0.48094093  0.11508220  0.33437382     0.12800
C737        C  0.52576509  0.11688892  0.28593416    -0.11600
H738        H  0.51496736  0.16404546  0.25039461     0.13100
C739        C  0.41952700  0.19012441  0.28355821    -0.22400
H740        H  0.43368420  0.14803508  0.32239387     0.08700
C741        C  0.49805056  0.12440234  0.35877817     0.05000
C742        C  0.50019700  0.10603633  0.38360730    -0.19700
C743        C  0.48423754  0.07949803  0.38527070    -0.11900
C744        C  0.46624698  0.07067828  0.36114205     0.13700
C745        C  0.46517402  0.08847731  0.33581332    -0.22400
C746        C  0.51285314  0.15432374  0.35922358    -0.05400
H747        H  0.51360275  0.11289446  0.40225355     0.15300
C748        C  0.44854793  0.04238664  0.36157422    -0.15600
H749        H  0.45157818  0.08192640  0.31719260     0.09600
H750        H  0.41631994  0.20272129  0.30438285     0.07500
H751        H  0.40089274  0.17430940  0.28084540     0.08700
H752        H  0.41855596  0.20572689  0.26472223     0.07700
H753        H  0.51805238  0.09372988  0.28304847     0.02600
H754        H  0.53851214  0.11848281  0.30677683     0.03100
H755        H  0.54093375  0.12225606  0.26738913     0.06600
H756        H  0.52468916  0.15834644  0.38034016     0.05500
H757        H  0.49589299  0.17193452  0.35656653    -0.00200
H758        H  0.52919748  0.15609830  0.34106110     0.01300
H759        H  0.43716579  0.03834773  0.34020957     0.04900
H760        H  0.43121438  0.04361992  0.37890979     0.06900
H761        H  0.46342949  0.02331342  0.36589001     0.07700
C762        C  0.51133098  0.10176592  0.12835435    -0.21900
C763        C  0.48664684  0.12057438  0.13002155     0.10100
C764        C  0.46443663  0.11846105  0.10811617     0.10500
C765        C  0.46571873  0.09532209  0.08731985    -0.16800
C766        C  0.49056823  0.07660848  0.08536386    -0.27200
C767        C  0.51411264  0.08062054  0.10573833     0.18800
C768        C  0.48524906  0.14305086  0.15410578     0.12800
C769        C  0.44091784  0.14201665  0.10492687    -0.11600
H770        H  0.44793154  0.09274507  0.07146219     0.13100
C771        C  0.54267322  0.06334975  0.10410185    -0.22400
H772        H  0.52894138  0.10406897  0.14447078     0.08700
C773        C  0.46360974  0.14172255  0.17662814     0.05000
C774        C  0.46187562  0.16479894  0.19738607    -0.19700
C775        C  0.48324378  0.18741447  0.19840235    -0.11900
C776        C  0.50727831  0.18625577  0.17832868     0.13700
C777        C  0.50712347  0.16509332  0.15553920    -0.22400
C778        C  0.44393888  0.11496861  0.18034032    -0.05400
H779        H  0.44407992  0.16484622  0.21342319     0.15300
C780        C  0.53441047  0.20530039  0.18157609    -0.15600
H781        H  0.52491221  0.16503452  0.13944466     0.09600
H782        H  0.54539289  0.05003307  0.12449776     0.07500
H783        H  0.56157058  0.07896663  0.10224900     0.08700
H784        H  0.54378864  0.04824063  0.08485374     0.07700
H785        H  0.45173380  0.16374395  0.10108427     0.02600
H786        H  0.42694898  0.14382371  0.12489104     0.03100
H787        H  0.42608033  0.13743982  0.08591033     0.06600
H788        H  0.42919490  0.11724169  0.19985330     0.05500
H789        H  0.45795586  0.09504870  0.18366743    -0.00200
H790        H  0.42975476  0.11124159  0.16080912     0.01300
H791        H  0.55440146  0.19097823  0.18234574     0.04900
H792        H  0.53431118  0.21831112  0.20231201     0.06900
H793        H  0.53630905  0.22043371  0.16238912     0.07700
C794        C  0.52013295  0.86147794  0.28247225    -0.21900
C795        C  0.49936876  0.86028503  0.30550113     0.10100
C796        C  0.47832175  0.83726037  0.30612861     0.10500
C797        C  0.47933166  0.81523110  0.28442638    -0.16800
C798        C  0.50124165  0.81518497  0.26240692    -0.27200
C799        C  0.52182157  0.83879628  0.26122188     0.18800
C800        C  0.50171132  0.88122314  0.33058989     0.12800
C801        C  0.45581193  0.83499273  0.33063061    -0.11600
H802        H  0.46377250  0.79697757  0.28548410     0.13100
C803        C  0.54713885  0.83974101  0.23958860    -0.22400
H804        H  0.53633595  0.87918771  0.28222121     0.08700
C805        C  0.52295159  0.87697997  0.35307009     0.05000
C806        C  0.52182344  0.89466662  0.37854966    -0.19700
C807        C  0.49967478  0.91614107  0.38224789    -0.11900
C808        C  0.47903799  0.92108828  0.35915515     0.13700
C809        C  0.48042700  0.90355822  0.33358471    -0.22400
C810        C  0.54623625  0.85319169  0.35055388    -0.05400
H811        H  0.53784178  0.89117923  0.39602583     0.15300
C812        C  0.45590443  0.94512829  0.36084134    -0.15600
H813        H  0.46431565  0.90668448  0.31612398     0.09600
H814        H  0.56837573  0.84175015  0.25179078     0.07500
H815        H  0.54455760  0.85923045  0.22491063     0.08700
H816        H  0.54874222  0.81959264  0.22579300     0.07700
H817        H  0.44120095  0.85475397  0.33050468     0.02600
H818        H  0.46728963  0.83353539  0.35225743     0.03100
H819        H  0.44158990  0.81508309  0.32817863     0.06600
H820        H  0.56071272  0.85247735  0.37035796     0.05500
H821        H  0.56046685  0.85745658  0.33103731    -0.00200
H822        H  0.53547757  0.83122397  0.34810697     0.01300
H823        H  0.44320268  0.94705262  0.33993943     0.04900
H824        H  0.46671661  0.96678982  0.36509130     0.06900
H825        H  0.43979496  0.94017791  0.37865667     0.07700
C826        C  0.51961853  0.89653504  0.12538131    -0.21900
C827        C  0.49551954  0.87713369  0.12831909     0.10100
C828        C  0.47087865  0.88048634  0.10926446     0.10500
C829        C  0.47098587  0.90317690  0.08801858    -0.16800
C830        C  0.49577763  0.92152374  0.08409992    -0.27200
C831        C  0.52055100  0.91790387  0.10295179     0.18800
C832        C  0.49735846  0.85270113  0.15044346     0.12800
C833        C  0.44495948  0.85949582  0.11035482    -0.11600
H834        H  0.45192548  0.90616624  0.07378712     0.13100
C835        C  0.54855647  0.93581692  0.09976474    -0.22400
H836        H  0.53833998  0.89441469  0.14021233     0.08700
C837        C  0.51914077  0.83024065  0.14828477     0.05000
C838        C  0.52040793  0.80804880  0.16990327    -0.19700
C839        C  0.49963436  0.80665471  0.19292648    -0.11900
C840        C  0.47656966  0.82788748  0.19384045     0.13700
C841        C  0.47662000  0.85140305  0.17354396    -0.22400
C842        C  0.54060177  0.82898243  0.12278993    -0.05400
H843        H  0.53793370  0.79168588  0.16900015     0.15300
C844        C  0.45059728  0.82541137  0.21451596    -0.15600
H845        H  0.45973180  0.86838048  0.17525222     0.09600
H846        H  0.56763853  0.92063947  0.09644639     0.07500
H847        H  0.55228878  0.94896257  0.12015680     0.08700
H848        H  0.54806028  0.95120766  0.08076515     0.07700
H849        H  0.43314161  0.86159550  0.13169653     0.02600
H850        H  0.45288174  0.83638540  0.10752974     0.03100
H851        H  0.42870755  0.86415183  0.09255628     0.06600
H852        H  0.55454374  0.80872706  0.12354859     0.05500
H853        H  0.55571790  0.84829074  0.12329399    -0.00200
H854        H  0.52819315  0.82877398  0.10163236     0.01300
H855        H  0.45053406  0.84442128  0.23008535     0.04900
H856        H  0.45064853  0.80443924  0.22713271     0.06900
H857        H  0.42971643  0.82576078  0.20156248     0.07700
C858        C  0.90694800  0.32303052  0.50991187    -0.21900
C859        C  0.87978638  0.32393662  0.49503712     0.10100
C860        C  0.87123092  0.35005640  0.48017091     0.10500
C861        C  0.89027000  0.37464439  0.48028812    -0.16800
C862        C  0.91699647  0.37414515  0.49600208    -0.27200
C863        C  0.92562094  0.34788903  0.51078183     0.18800
C864        C  0.85910090  0.29867726  0.49819376     0.12800
C865        C  0.84147069  0.35244257  0.46529189    -0.11600
H866        H  0.88373655  0.39477331  0.46903275     0.13100
C867        C  0.95463296  0.34570799  0.52707740    -0.22400
H868        H  0.91315868  0.30300222  0.52152315     0.08700
C869        C  0.85541982  0.27704273  0.47594210     0.05000
C870        C  0.83241190  0.25619410  0.47857619    -0.19700
C871        C  0.81354219  0.25641950  0.50318604    -0.11900
C872        C  0.81934659  0.27618300  0.52676857     0.13700
C873        C  0.84180343  0.29730269  0.52378750    -0.22400
C874        C  0.87546016  0.27624543  0.44938851    -0.05400
H875        H  0.82814093  0.24077424  0.46071889     0.15300
C876        C  0.80206688  0.27576164  0.55525750    -0.15600
H877        H  0.84535145  0.31335455  0.54126836     0.09600
H878        H  0.95858732  0.32301427  0.53562960     0.07500
H879        H  0.95465637  0.36103631  0.54623200     0.08700
H880        H  0.97312905  0.35139589  0.51199304     0.07700
H881        H  0.82358719  0.34886173  0.48173475     0.02600
H882        H  0.83951482  0.33560097  0.44757365     0.03100
H883        H  0.83812159  0.37458525  0.45520359     0.06600
H884        H  0.86965346  0.25777670  0.43424014     0.05500
H885        H  0.89872892  0.27312386  0.45668099    -0.00200
H886        H  0.87379558  0.29725891  0.43689428     0.01300
H887        H  0.81760991  0.27306856  0.57405903     0.04900
H888        H  0.78599166  0.25725448  0.55638323     0.06900
H889        H  0.78991148  0.29697391  0.55794010     0.07700
C890        C  0.90399286  0.66944656  0.50202210    -0.21900
C891        C  0.87446602  0.66658948  0.51104852     0.10100
C892        C  0.86447732  0.63941946  0.52278664     0.10500
C893        C  0.88427298  0.61553104  0.52497487    -0.16800
C894        C  0.91349362  0.61797373  0.51484621    -0.27200
C895        C  0.92375279  0.64551090  0.50390464     0.18800
C896        C  0.85362735  0.69135328  0.50578268     0.12800
C897        C  0.83261123  0.63527824  0.53180338    -0.11600
H898        H  0.87654425  0.59443544  0.53335190     0.13100
C899        C  0.95536252  0.65064639  0.49441506    -0.22400
H900        H  0.91155113  0.69037467  0.49307117     0.08700
C901        C  0.84630295  0.71200479  0.52804253     0.05000
C902        C  0.82350153  0.73256256  0.52290765    -0.19700
C903        C  0.80806244  0.73278272  0.49602906    -0.11900
C904        C  0.81701797  0.71354800  0.47302535     0.13700
C905        C  0.83959321  0.69294901  0.47827768    -0.22400
C906        C  0.86203715  0.71183294  0.55733499    -0.05400
H907        H  0.81663771  0.74742563  0.54044516     0.15300
C908        C  0.80314798  0.71407994  0.44276988    -0.15600
H909        H  0.84575310  0.67743691  0.46103146     0.09600
H910        H  0.96477544  0.66944333  0.50715932     0.07500
H911        H  0.95595117  0.65621676  0.47056239     0.08700
H912        H  0.96992297  0.63130320  0.49823219     0.07700
H913        H  0.81793436  0.63895503  0.51249205     0.02600
H914        H  0.82670183  0.65126401  0.54946470     0.03100
H915        H  0.82845027  0.61259961  0.54027108     0.06600
H916        H  0.85360468  0.72948874  0.57223513     0.05500
H917        H  0.88608968  0.71555452  0.55383015    -0.00200
H918        H  0.85883066  0.69021200  0.56845596     0.01300
H919        H  0.82067931  0.71748563  0.42591386     0.04900
H920        H  0.78679383  0.73218243  0.44007499     0.06900
H921        H  0.79195806  0.69263047  0.43841426     0.07700
C922        C  0.08228983  0.32498206  0.48580780    -0.21900
C923        C  0.11255908  0.32457296  0.49234615     0.10100
C924        C  0.12729668  0.35121015  0.49953983     0.10500
C925        C  0.11119864  0.37777145  0.50043206    -0.16800
C926        C  0.08088016  0.37820494  0.49395603    -0.27200
C927        C  0.06615282  0.35150294  0.48660848     0.18800
C928        C  0.12890136  0.29625471  0.49100238     0.12800
C929        C  0.15999354  0.35151882  0.50627352    -0.11600
H930        H  0.12230770  0.39829008  0.50607879     0.13100
C931        C  0.03346896  0.34994721  0.47992543    -0.22400
H932        H  0.07117338  0.30445571  0.48019412     0.08700
C933        C  0.13096365  0.27736671  0.51570905     0.05000
C934        C  0.15154332  0.25402161  0.51530937    -0.19700
C935        C  0.17014073  0.24970178  0.49088388    -0.11900
C936        C  0.16588127  0.26685489  0.46514163     0.13700
C937        C  0.14526993  0.28996948  0.46553860    -0.22400
C938        C  0.11274111  0.28296812  0.54299232    -0.05400
H939        H  0.15487820  0.24078299  0.53496797     0.15300
C940        C  0.18359140  0.26206086  0.43732935    -0.15600
H941        H  0.14312906  0.30421519  0.44641236     0.09600
H942        H  0.02277459  0.33406396  0.49525519     0.07500
H943        H  0.03022019  0.34203473  0.45693701     0.08700
H944        H  0.02191868  0.37143235  0.48237909     0.07700
H945        H  0.17264371  0.34350783  0.48681140     0.02600
H946        H  0.16466365  0.33690606  0.52539384     0.03100
H947        H  0.16795773  0.37413107  0.51174326     0.06600
H948        H  0.11726936  0.26629569  0.56041038     0.05500
H949        H  0.08882579  0.28189446  0.53738321    -0.00200
H950        H  0.11790836  0.30522196  0.55206840     0.01300
H951        H  0.16826586  0.25845820  0.41850106     0.04900
H952        H  0.19830424  0.24244199  0.43863305     0.06900
H953        H  0.19733934  0.28192596  0.43281897     0.07700
C954        C  0.08104816  0.67069468  0.53343537    -0.21900
C955        C  0.10858234  0.67241418  0.51944097     0.10100
C956        C  0.11945158  0.64810074  0.50305920     0.10500
C957        C  0.10256957  0.62218250  0.50143476    -0.16800
C958        C  0.07558160  0.61994485  0.51642596    -0.27200
C959        C  0.06423851  0.64465387  0.53207764     0.18800
C960        C  0.12719628  0.69868335  0.52422901     0.12800
C961        C  0.14915478  0.64932414  0.48788177    -0.11600
H962        H  0.11081653  0.60329497  0.48910890     0.13100
C963        C  0.03424626  0.64404404  0.54672274    -0.22400
H964        H  0.07301491  0.68959311  0.54587331     0.08700
C965        C  0.12751659  0.72251848  0.50420257     0.05000
C966        C  0.15046060  0.74339279  0.50597778    -0.19700
C967        C  0.17285844  0.74042529  0.52721490    -0.11900
C968        C  0.17049856  0.71831010  0.54918008     0.13700
C969        C  0.14760198  0.69767788  0.54736861    -0.22400
C970        C  0.10458239  0.72493593  0.48022485    -0.05400
H971        H  0.15225653  0.76050974  0.48933655     0.15300
C972        C  0.19231362  0.71515573  0.57419517    -0.15600
H973        H  0.14672222  0.67959478  0.56307023     0.09600
H974        H  0.02817019  0.66602350  0.55595690     0.07500
H975        H  0.03420483  0.62805631  0.56523246     0.08700
H976        H  0.01705546  0.63772903  0.53037307     0.07700
H977        H  0.16690745  0.65303674  0.50442985     0.02600
H978        H  0.14939488  0.66768274  0.47163631     0.03100
H979        H  0.15417448  0.62841355  0.47594284     0.06600
H980        H  0.10806381  0.74493020  0.46642038     0.05500
H981        H  0.08219333  0.72638582  0.49028930    -0.00200
H982        H  0.10559540  0.70517034  0.46566314     0.01300
H983        H  0.18027722  0.71628268  0.59555078     0.04900
H984        H  0.20935559  0.73278646  0.57446139     0.06900
H985        H  0.20369643  0.69341879  0.57253337     0.07700
C986        C  0.86872933  0.47264816  0.65037063    -0.21900
C987        C  0.88049587  0.48499137  0.67624608     0.10100
C988        C  0.90925459  0.49701500  0.67609770     0.10500
C989        C  0.92532114  0.49736527  0.64958514    -0.16800
C990        C  0.91334808  0.48550804  0.62349871    -0.27200
C991        C  0.88482078  0.47267282  0.62392696     0.18800
C992        C  0.86118149  0.48659778  0.70249263     0.12800
C993        C  0.92284302  0.50940768  0.70383498    -0.11600
H994        H  0.94739439  0.50680985  0.64921222     0.13100
C995        C  0.87020539  0.45985817  0.59685573    -0.22400
H996        H  0.84650200  0.46353664  0.65068633     0.08700
C997        C  0.84122584  0.51032861  0.70605437     0.05000
C998        C  0.81913348  0.50838506  0.72760510    -0.19700
C999        C  0.81626315  0.48311408  0.74533856    -0.11900
C1000       C  0.83741434  0.46010475  0.74300417     0.13700
C1001       C  0.85989963  0.46233410  0.72168999    -0.22400
C1002       C  0.84233776  0.53702812  0.68616533    -0.05400
H1003       H  0.80285783  0.52595938  0.72949421     0.15300
C1004       C  0.83585997  0.43213572  0.76096976    -0.15600
H1005       H  0.87536732  0.44418714  0.71876239     0.09600
H1006       H  0.84917522  0.47184671  0.59249517     0.07500
H1007       H  0.86513373  0.43612073  0.60067167     0.08700
H1008       H  0.88408018  0.46151747  0.57676371     0.07700
H1009       H  0.92395541  0.49185122  0.72092086     0.02600
H1010       H  0.90921742  0.52803761  0.71228486     0.03100
H1011       H  0.94565495  0.51772563  0.69989968     0.06600
H1012       H  0.82485680  0.55339960  0.69183383     0.05500
H1013       H  0.83904582  0.53016395  0.66285682    -0.00200
H1014       H  0.86415353  0.54812568  0.68831656     0.01300
H1015       H  0.83460054  0.41270440  0.74597764     0.04900
H1016       H  0.81632541  0.43131196  0.77565731     0.06900
H1017       H  0.85609583  0.43021525  0.77476516     0.07700
C1018       C  0.82897586  0.46114310  0.85944480    -0.21900
C1019       C  0.85058126  0.48338983  0.85837688     0.10100
C1020       C  0.85159577  0.50236735  0.83361674     0.10500
C1021       C  0.82890781  0.50086356  0.81240671    -0.16800
C1022       C  0.80686095  0.47894118  0.81368739    -0.27200
C1023       C  0.80810034  0.45777116  0.83673127     0.18800
C1024       C  0.87291057  0.48505331  0.88250146     0.12800
C1025       C  0.87757842  0.52268585  0.82837781    -0.11600
H1026       H  0.82872672  0.51652074  0.79435025     0.13100
C1027       C  0.78939659  0.43022397  0.83702725    -0.22400
H1028       H  0.82919254  0.44548835  0.87756473     0.08700
C1029       C  0.87348180  0.50881594  0.90282794     0.05000
C1030       C  0.89625107  0.51018274  0.92397053    -0.19700
C1031       C  0.91655351  0.48679573  0.92745557    -0.11900
C1032       C  0.91387317  0.46154536  0.90899566     0.13700
C1033       C  0.89286589  0.46151735  0.88612618    -0.22400
C1034       C  0.84891128  0.53146679  0.90375411    -0.05400
H1035       H  0.89758116  0.52909977  0.93866205     0.15300
C1036       C  0.93227273  0.43400629  0.91317579    -0.15600
H1037       H  0.89155332  0.44260331  0.87140626     0.09600
H1038       H  0.77385700  0.43089964  0.85601774     0.07500
H1039       H  0.80393001  0.41050759  0.83925713     0.08700
H1040       H  0.77685974  0.42718500  0.81631382     0.07700
H1041       H  0.89820250  0.50934699  0.82700216     0.02600
H1042       H  0.88001149  0.53902260  0.84641924     0.03100
H1043       H  0.87521594  0.53511014  0.80737272     0.06600
H1044       H  0.85224648  0.54774994  0.92184744     0.05500
H1045       H  0.82747081  0.52007964  0.90765956    -0.00200
H1046       H  0.84737860  0.54388764  0.88280183     0.01300
H1047       H  0.91738501  0.41470014  0.91632579     0.04900
H1048       H  0.94697116  0.43515495  0.93271541     0.06900
H1049       H  0.94612789  0.43016648  0.89328169     0.07700
C1050       C  0.13354688  0.51003230  0.72220374    -0.21900
C1051       C  0.13255612  0.48616656  0.70238779     0.10100
C1052       C  0.15350139  0.46311658  0.70458467     0.10500
C1053       C  0.17520332  0.46465546  0.72648679    -0.16800
C1054       C  0.17751235  0.48941627  0.74506484    -0.27200
C1055       C  0.15628389  0.51234695  0.74317198     0.18800
C1056       C  0.11313132  0.48826202  0.67638263     0.12800
C1057       C  0.15462523  0.43820737  0.68235067    -0.11600
H1058       H  0.19187882  0.44740742  0.72776821     0.13100
C1059       C  0.15817298  0.54044822  0.76103083    -0.22400
H1060       H  0.11778085  0.52799543  0.71982960     0.08700
C1061       C  0.08696355  0.47150501  0.67376985     0.05000
C1062       C  0.07153707  0.47184552  0.64692042    -0.19700
C1063       C  0.08119453  0.48944319  0.62326295    -0.11900
C1064       C  0.10673270  0.50720841  0.62644417     0.13700
C1065       C  0.12250325  0.50619966  0.65298087    -0.22400
C1066       C  0.07486037  0.45420657  0.69951041    -0.05400
H1067       H  0.05142459  0.45893941  0.64462377     0.15300
C1068       C  0.11854191  0.52672500  0.60216638    -0.15600
H1069       H  0.14265877  0.51907093  0.65526729     0.09600
H1070       H  0.13815748  0.54255791  0.77512953     0.07500
H1071       H  0.15927655  0.55975253  0.74592471     0.08700
H1072       H  0.17795560  0.54136565  0.77538602     0.07700
H1073       H  0.15783288  0.44736998  0.65985200     0.02600
H1074       H  0.13380813  0.42526554  0.68282561     0.03100
H1075       H  0.17318933  0.42271342  0.68686215     0.06600
H1076       H  0.05387772  0.44274788  0.69373488     0.05500
H1077       H  0.07031408  0.46951941  0.71816980    -0.00200
H1078       H  0.09095892  0.43725575  0.70688946     0.01300
H1079       H  0.11857307  0.55012314  0.60973097     0.04900
H1080       H  0.10547984  0.52537249  0.58152423     0.06900
H1081       H  0.14162010  0.52008283  0.59681023     0.07700
C1082       C  0.16160572  0.51084072  0.85864400    -0.21900
C1083       C  0.13919170  0.48947037  0.85618307     0.10100
C1084       C  0.13850342  0.47113021  0.83087514     0.10500
C1085       C  0.16228806  0.47202544  0.81081670    -0.16800
C1086       C  0.18508785  0.49311779  0.81344791    -0.27200
C1087       C  0.18353693  0.51393539  0.83685139     0.18800
C1088       C  0.11586327  0.48824636  0.87948946     0.12800
C1089       C  0.11174580  0.45247295  0.82361985    -0.11600
H1090       H  0.16267405  0.45663264  0.79248739     0.13100
C1091       C  0.20295134  0.54096151  0.83842653    -0.22400
H1092       H  0.16119784  0.52615199  0.87710680     0.08700
C1093       C  0.11338113  0.46409721  0.89916293     0.05000
C1094       C  0.09056837  0.46401038  0.92038458    -0.19700
C1095       C  0.07239476  0.48894304  0.92490385    -0.11900
C1096       C  0.07666540  0.51411792  0.90666102     0.13700
C1097       C  0.09745979  0.51295296  0.88359320    -0.22400
C1098       C  0.13623300  0.43969666  0.89961994    -0.05400
H1099       H  0.08781023  0.44491833  0.93457402     0.15300
C1100       C  0.06009222  0.54278701  0.91109874    -0.15600
H1101       H  0.10006623  0.53197634  0.86925616     0.09600
H1102       H  0.21754057  0.53962114  0.85810261     0.07500
H1103       H  0.18884066  0.56102209  0.84037821     0.08700
H1104       H  0.21657661  0.54399887  0.81835679     0.07700
H1105       H  0.09205220  0.46704101  0.82144034     0.02600
H1106       H  0.10722153  0.43593562  0.84098686     0.03100
H1107       H  0.11462350  0.44038663  0.80243016     0.06600
H1108       H  0.13172225  0.42345028  0.91743217     0.05500
H1109       H  0.15845718  0.44941130  0.90367663    -0.00200
H1110       H  0.13686227  0.42744838  0.87849076     0.01300
H1111       H  0.07617993  0.56110967  0.91422648     0.04900
H1112       H  0.04542777  0.54256439  0.93070106     0.06900
H1113       H  0.04641871  0.54753195  0.89129013     0.07700
C1114       C  0.84717126  0.48040337  0.30065655    -0.21900
C1115       C  0.86147527  0.50710374  0.30704357     0.10100
C1116       C  0.85636577  0.53217915  0.28922970     0.10500
C1117       C  0.83449435  0.53081673  0.26722912    -0.16800
C1118       C  0.81819740  0.50480091  0.26275334    -0.27200
C1119       C  0.82573667  0.47886196  0.27846889     0.18800
C1120       C  0.87986938  0.50861237  0.33388760     0.12800
C1121       C  0.87334696  0.56044266  0.29410127    -0.11600
H1122       H  0.82876067  0.55054514  0.25489599     0.13100
C1123       C  0.81099117  0.44946319  0.27279728    -0.22400
H1124       H  0.85188521  0.46096620  0.31387224     0.08700
C1125       C  0.86768196  0.51773858  0.36114631     0.05000
C1126       C  0.88541139  0.51712435  0.38653776    -0.19700
C1127       C  0.91470353  0.50700729  0.38524890    -0.11900
C1128       C  0.92706602  0.49847977  0.35777524     0.13700
C1129       C  0.90930457  0.49912098  0.33244872    -0.22400
C1130       C  0.83578190  0.52732299  0.36354373    -0.05400
H1131       H  0.87618056  0.52384163  0.40761495     0.15300
C1132       C  0.95897143  0.48943085  0.35400354    -0.15600
H1133       H  0.91847371  0.49221288  0.31140047     0.09600
H1134       H  0.79896830  0.44222271  0.29290725     0.07500
H1135       H  0.82812705  0.43270677  0.26722081     0.08700
H1136       H  0.79511854  0.45023559  0.25413714     0.07700
H1137       H  0.89740205  0.55615397  0.29122940     0.02600
H1138       H  0.86936800  0.56894852  0.31674745     0.03100
H1139       H  0.86667968  0.57787538  0.27817225     0.06600
H1140       H  0.82980161  0.53347787  0.38653687     0.05500
H1141       H  0.82104675  0.50896296  0.35647086    -0.00200
H1142       H  0.83175352  0.54683467  0.34926323     0.01300
H1143       H  0.96009501  0.46613334  0.34624034     0.04900
H1144       H  0.97218078  0.49145903  0.37446173     0.06900
H1145       H  0.96944795  0.50389135  0.33719672     0.07700
C1146       C  0.82806866  0.52990223  0.14851272    -0.21900
C1147       C  0.85179378  0.50983071  0.15006646     0.10100
C1148       C  0.85485197  0.49221687  0.17561709     0.10500
C1149       C  0.83187308  0.49167049  0.19650225    -0.16800
C1150       C  0.80772908  0.51133551  0.19497020    -0.27200
C1151       C  0.80704971  0.53207034  0.17144286     0.18800
C1152       C  0.87374146  0.50818725  0.12541711     0.12800
C1153       C  0.88324678  0.47578584  0.18215204    -0.11600
H1154       H  0.83320630  0.47609791  0.21452875     0.13100
C1155       C  0.78609606  0.55797447  0.17075334    -0.22400
H1156       H  0.82660281  0.54480165  0.12983382     0.08700
C1157       C  0.87741026  0.48208443  0.10852061     0.05000
C1158       C  0.90088297  0.48020561  0.08818964    -0.19700
C1159       C  0.91860584  0.50491202  0.08152406    -0.11900
C1160       C  0.91250532  0.53213984  0.09597172     0.13700
C1161       C  0.89097686  0.53311216  0.11847900    -0.22400
C1162       C  0.85516839  0.45716399  0.11003006    -0.05400
H1163       H  0.90447903  0.45974361  0.07616869     0.15300
C1164       C  0.92778514  0.56063852  0.08783700    -0.15600
H1165       H  0.88730618  0.55362050  0.13040766     0.09600
H1166       H  0.77039194  0.55550385  0.15205471     0.07500
H1167       H  0.79889300  0.57873601  0.16770235     0.08700
H1168       H  0.77367013  0.56060224  0.19163899     0.07700
H1169       H  0.90183282  0.49184811  0.18315568     0.02600
H1170       H  0.88837422  0.45907582  0.16504066     0.03100
H1171       H  0.88218487  0.46419180  0.20372847     0.06600
H1172       H  0.86078513  0.43903563  0.09440290     0.05500
H1173       H  0.83293308  0.46576661  0.10400838    -0.00200
H1174       H  0.85383378  0.44746869  0.13237780     0.01300
H1175       H  0.91095130  0.57724500  0.08111811     0.04900
H1176       H  0.94352824  0.55804515  0.06923893     0.06900
H1177       H  0.94011256  0.56928656  0.10721664     0.07700
C1178       C  0.08321694  0.51622054  0.33052361    -0.21900
C1179       C  0.11359870  0.51019288  0.33188238     0.10100
C1180       C  0.12667995  0.50288497  0.35924474     0.10500
C1181       C  0.10904938  0.50208069  0.38478755    -0.16800
C1182       C  0.07869124  0.50838509  0.38354117    -0.27200
C1183       C  0.06549508  0.51514168  0.35599426     0.18800
C1184       C  0.13171104  0.51199439  0.30465187     0.12800
C1185       C  0.15925820  0.49592813  0.36141831    -0.11600
H1186       H  0.11900056  0.49658725  0.40585361     0.13100
C1187       C  0.03279270  0.52059927  0.35244671    -0.22400
H1188       H  0.07324134  0.52158060  0.30942682     0.08700
C1189       C  0.13706449  0.48686158  0.28685354     0.05000
C1190       C  0.15872683  0.48830265  0.26458805    -0.19700
C1191       C  0.17503628  0.51430994  0.26001979    -0.11900
C1192       C  0.16758756  0.54019406  0.27599001     0.13700
C1193       C  0.14605432  0.53868965  0.29821768    -0.22400
C1194       C  0.12088603  0.45826040  0.29232967    -0.05400
H1195       H  0.16450075  0.46851305  0.25228330     0.15300
C1196       C  0.18263831  0.56947519  0.27064634    -0.15600
H1197       H  0.14141256  0.55812506  0.31152845     0.09600
H1198       H  0.02358728  0.50401604  0.33683736     0.07500
H1199       H  0.02911481  0.54308908  0.34331291     0.08700
H1200       H  0.02036137  0.51885169  0.37344154     0.07700
H1201       H  0.17243957  0.51528998  0.35403466     0.02600
H1202       H  0.16464951  0.47659178  0.34723931     0.03100
H1203       H  0.16589120  0.49054927  0.38439610     0.06600
H1204       H  0.12777006  0.44072303  0.27653402     0.05500
H1205       H  0.09668667  0.46186218  0.28980442    -0.00200
H1206       H  0.12548432  0.45028402  0.31502994     0.01300
H1207       H  0.16569537  0.58647820  0.26533756     0.04900
H1208       H  0.19845938  0.56870002  0.25192415     0.06900
H1209       H  0.19478749  0.57638049  0.29081692     0.07700
C1210       C  0.16349745  0.47776146  0.15025976    -0.21900
C1211       C  0.14180567  0.49989440  0.14798981     0.10100
C1212       C  0.14081857  0.52257009  0.16945321     0.10500
C1213       C  0.16315811  0.52411089  0.19097645    -0.16800
C1214       C  0.18525848  0.50227483  0.19310211    -0.27200
C1215       C  0.18442895  0.47798601  0.17326072     0.18800
C1216       C  0.11930346  0.49798178  0.12404605     0.12800
C1217       C  0.11552004  0.54435247  0.17048338    -0.11600
H1218       H  0.16325522  0.54238831  0.20647650     0.13100
C1219       C  0.20378395  0.45110574  0.17678775    -0.22400
H1220       H  0.16338490  0.45957325  0.13460641     0.08700
C1221       C  0.12045351  0.51646889  0.09898004     0.05000
C1222       C  0.09751976  0.51510324  0.07798576    -0.19700
C1223       C  0.07448387  0.49417977  0.08021854    -0.11900
C1224       C  0.07458962  0.47436224  0.10453573     0.13700
C1225       C  0.09650883  0.47707815  0.12641609    -0.22400
C1226       C  0.14641664  0.53680696  0.09381488    -0.05400
H1227       H  0.09786363  0.53006493  0.05931494     0.15300
C1228       C  0.05229813  0.44978514  0.10802640    -0.15600
H1229       H  0.09605579  0.46243694  0.14535475     0.09600
H1230       H  0.21923789  0.44933877  0.15778913     0.07500
H1231       H  0.18971921  0.43095727  0.17745917     0.08700
H1232       H  0.21654150  0.45145506  0.19762493     0.07700
H1233       H  0.09433595  0.53218843  0.17330185     0.02600
H1234       H  0.11445516  0.55738989  0.14983314     0.03100
H1235       H  0.11779696  0.56008707  0.18921630     0.06600
H1236       H  0.14422183  0.54908259  0.07270944     0.05500
H1237       H  0.16715118  0.52359351  0.09282083    -0.00200
H1238       H  0.14834636  0.55323522  0.11189380     0.01300
H1239       H  0.06410081  0.42832684  0.11020529     0.04900
H1240       H  0.03707266  0.44773604  0.08898399     0.06900
H1241       H  0.03895306  0.45365597  0.12827129     0.07700
C1242       C  0.47794941  0.35031240  0.13218926    -0.21900
C1243       C  0.49395871  0.32511200  0.12367021     0.10100
C1244       C  0.51128793  0.32570698  0.09781179     0.10500
C1245       C  0.51266262  0.35191868  0.08125661    -0.16800
C1246       C  0.49675603  0.37726080  0.08987554    -0.27200
C1247       C  0.47918729  0.37647021  0.11568324     0.18800
C1248       C  0.49388167  0.29940558  0.14376675     0.12800
C1249       C  0.52796446  0.29865589  0.08762151    -0.11600
H1250       H  0.52583953  0.35251047  0.06125510     0.13100
C1251       C  0.46248047  0.40301961  0.12717089    -0.22400
H1252       H  0.46498894  0.34977826  0.15234998     0.08700
C1253       C  0.51493257  0.29737184  0.16661972     0.05000
C1254       C  0.51130426  0.27583908  0.18842740    -0.19700
C1255       C  0.48683383  0.25667094  0.18834278    -0.11900
C1256       C  0.46622582  0.25802939  0.16488690     0.13700
C1257       C  0.47029683  0.27921631  0.14256829    -0.22400
C1258       C  0.54017075  0.31910663  0.16908202    -0.05400
H1259       H  0.52676419  0.27504722  0.20672808     0.15300
C1260       C  0.43869083  0.23922942  0.16379173    -0.15600
H1261       H  0.45397892  0.28121791  0.12512802     0.09600
H1262       H  0.47021477  0.40830793  0.14984527     0.07500
H1263       H  0.43843735  0.39791713  0.12795343     0.08700
H1264       H  0.46562848  0.42311323  0.11355850     0.07700
H1265       H  0.51214836  0.28026065  0.08365333     0.02600
H1266       H  0.54417436  0.29170555  0.10464322     0.03100
H1267       H  0.54025824  0.30286158  0.06680666     0.06600
H1268       H  0.55435029  0.31449097  0.18857092     0.05500
H1269       H  0.53131121  0.34192849  0.17137022    -0.00200
H1270       H  0.55433993  0.31790773  0.14912017     0.01300
H1271       H  0.41884530  0.25375053  0.16307572     0.04900
H1272       H  0.43629737  0.22454561  0.18316099     0.06900
H1273       H  0.43911912  0.22524231  0.14361667     0.07700
C1274       C  0.52842335  0.69933891  0.15182413    -0.21900
C1275       C  0.50137386  0.69616361  0.13703165     0.10100
C1276       C  0.47814185  0.71630971  0.14286167     0.10500
C1277       C  0.48167075  0.73763727  0.16526113    -0.16800
C1278       C  0.50793602  0.73910062  0.18172504    -0.27200
C1279       C  0.53212981  0.72080267  0.17383376     0.18800
C1280       C  0.49731073  0.66985842  0.11780118     0.12800
C1281       C  0.44951714  0.71481786  0.12590995    -0.11600
H1282       H  0.46324469  0.75184168  0.17123489     0.13100
C1283       C  0.56194258  0.72296444  0.18867028    -0.22400
H1284       H  0.54645059  0.68422081  0.14692444     0.08700
C1285       C  0.51144909  0.66741162  0.09015058     0.05000
C1286       C  0.50983752  0.64056494  0.07455212    -0.19700
C1287       C  0.49405938  0.61625482  0.08578118    -0.11900
C1288       C  0.47924788  0.61898196  0.11317672     0.13700
C1289       C  0.48115052  0.64576357  0.12884315    -0.22400
C1290       C  0.52788380  0.69322412  0.07699822    -0.05400
H1291       H  0.52079819  0.63858921  0.05333863     0.15300
C1292       C  0.46234262  0.59389391  0.12719445    -0.15600
H1293       H  0.47060667  0.64761312  0.15028601     0.09600
H1294       H  0.57929389  0.72681877  0.17172524     0.07500
H1295       H  0.56686459  0.70195353  0.20036931     0.08700
H1296       H  0.56322850  0.74149079  0.20470747     0.07700
H1297       H  0.43865417  0.69309438  0.12950895     0.02600
H1298       H  0.45408073  0.71766214  0.10199516     0.03100
H1299       H  0.43385529  0.73245970  0.13291642     0.06600
H1300       H  0.53694673  0.68781962  0.05483444     0.05500
H1301       H  0.54665505  0.69962055  0.09145936    -0.00200
H1302       H  0.51259777  0.71234782  0.07465491     0.01300
H1303       H  0.47192768  0.58897735  0.14922023     0.04900
H1304       H  0.46305072  0.57318253  0.11411440     0.06900
H1305       H  0.43879697  0.60043651  0.13004181     0.07700
C1306       C  0.52723602  0.71089349  0.86441683    -0.21900
C1307       C  0.50118608  0.69453646  0.86878984     0.10100
C1308       C  0.47503499  0.70280841  0.85397737     0.10500
C1309       C  0.47611360  0.72557639  0.83310115    -0.16800
C1310       C  0.50251948  0.74085236  0.82726806    -0.27200
C1311       C  0.52821446  0.73410103  0.84378752     0.18800
C1312       C  0.50208031  0.66713904  0.88665473     0.12800
C1313       C  0.44626978  0.68677987  0.85936485    -0.11600
H1314       H  0.45662312  0.73029030  0.81995644     0.13100
C1315       C  0.55732247  0.74964995  0.83892453    -0.22400
H1316       H  0.54723212  0.70460011  0.87608308     0.08700
C1317       C  0.50700338  0.63929515  0.87320524     0.05000
C1318       C  0.50540228  0.61351981  0.89037329    -0.19700
C1319       C  0.49868409  0.61504177  0.92048783    -0.11900
C1320       C  0.49400570  0.64287158  0.93403254     0.13700
C1321       C  0.49585763  0.66870094  0.91690864    -0.22400
C1322       C  0.51365984  0.63680509  0.84069180    -0.05400
H1323       H  0.50910460  0.59207481  0.88023037     0.15300
C1324       C  0.48705883  0.64530158  0.96648408    -0.15600
H1325       H  0.49190826  0.69013344  0.92697045     0.09600
H1326       H  0.57430258  0.73335877  0.83175674     0.07500
H1327       H  0.56463410  0.76007966  0.85990271     0.08700
H1328       H  0.55599118  0.76722789  0.82196433     0.07700
H1329       H  0.44007127  0.68880050  0.88300144     0.02600
H1330       H  0.44862620  0.66300175  0.85362959     0.03100
H1331       H  0.42793708  0.69609487  0.84592627     0.06600
H1332       H  0.51691380  0.61341841  0.83378678     0.05500
H1333       H  0.53419174  0.64926044  0.83547946    -0.00200
H1334       H  0.49504112  0.64605053  0.82763588     0.01300
H1335       H  0.50527194  0.63532628  0.97959749     0.04900
H1336       H  0.46606084  0.63352983  0.97141159     0.06900
H1337       H  0.48445496  0.66872252  0.97354240     0.07700
C1338       C  0.69612067  0.45969098  0.85217745    -0.21900
C1339       C  0.69711487  0.48541305  0.86932234     0.10100
C1340       C  0.72017274  0.50606161  0.86512706     0.10500
C1341       C  0.74057649  0.50149576  0.84210553    -0.16800
C1342       C  0.73804375  0.47686544  0.82334079    -0.27200
C1343       C  0.71618545  0.45515462  0.82913476     0.18800
C1344       C  0.67192607  0.49118650  0.88931251     0.12800
C1345       C  0.72264152  0.53316226  0.88436700    -0.11600
H1346       H  0.75731561  0.51808074  0.83758483     0.13100
C1347       C  0.71287336  0.42722029  0.81112655    -0.22400
H1348       H  0.67861464  0.44368095  0.85590158     0.08700
C1349       C  0.64680373  0.50690329  0.87936832     0.05000
C1350       C  0.62188209  0.50911424  0.89773106    -0.19700
C1351       C  0.62133216  0.49536469  0.92541534    -0.11900
C1352       C  0.64694416  0.48046247  0.93578270     0.13700
C1353       C  0.67180254  0.47823280  0.91733236    -0.22400
C1354       C  0.64588122  0.52029286  0.84892349    -0.05400
H1355       H  0.60231202  0.52066581  0.89000186     0.15300
C1356       C  0.64932695  0.46737094  0.96629965    -0.15600
H1357       H  0.69118230  0.46616759  0.92477143     0.09600
H1358       H  0.69069182  0.42686181  0.80055240     0.07500
H1359       H  0.71493275  0.40770748  0.82585834     0.08700
H1360       H  0.72981968  0.42488451  0.79360108     0.07700
H1361       H  0.72546377  0.52634988  0.90772949     0.02600
H1362       H  0.70232988  0.54686105  0.88244806     0.03100
H1363       H  0.74191016  0.54706562  0.87805441     0.06600
H1364       H  0.62441118  0.53147344  0.84455502     0.05500
H1365       H  0.64892734  0.50269633  0.83204607    -0.00200
H1366       H  0.66376747  0.53693896  0.84650563     0.01300
H1367       H  0.65165405  0.44295469  0.96462523     0.04900
H1368       H  0.63017064  0.47258135  0.98063900     0.06900
H1369       H  0.66922436  0.47647233  0.97750684     0.07700
C1370       C  0.52036741  0.27115964  0.87110145    -0.21900
C1371       C  0.49860761  0.29333515  0.87190444     0.10100
C1372       C  0.47609843  0.29374946  0.85037089     0.10500
C1373       C  0.47647045  0.27261996  0.82783983    -0.16800
C1374       C  0.49928046  0.25161999  0.82569054    -0.27200
C1375       C  0.52132420  0.25047645  0.84787424     0.18800
C1376       C  0.50218288  0.31881824  0.89205306     0.12800
C1377       C  0.45276818  0.31767379  0.85002145    -0.11600
H1378       H  0.45979409  0.27359675  0.81063995     0.13100
C1379       C  0.54730541  0.22957178  0.84662919    -0.22400
H1380       H  0.53784721  0.27129192  0.88750923     0.08700
C1381       C  0.48620890  0.32117417  0.91865864     0.05000
C1382       C  0.48627956  0.34822359  0.93399756    -0.19700
C1383       C  0.50238722  0.37266161  0.92346186    -0.11900
C1384       C  0.51930076  0.36978883  0.89731840     0.13700
C1385       C  0.51906178  0.34280442  0.88206771    -0.22400
C1386       C  0.46927788  0.29516418  0.93075465    -0.05400
H1387       H  0.47390094  0.35024795  0.95441398     0.15300
C1388       C  0.53664804  0.39493617  0.88393215    -0.15600
H1389       H  0.53108181  0.34085642  0.86141287     0.09600
H1390       H  0.54662512  0.21451369  0.86596663     0.07500
H1391       H  0.56825250  0.24243558  0.84725789     0.08700
H1392       H  0.54778043  0.21600717  0.82629550     0.07700
H1393       H  0.46342785  0.33969760  0.84774240     0.02600
H1394       H  0.43981155  0.31714250  0.87081850     0.03100
H1395       H  0.43708811  0.31485980  0.83133925     0.06600
H1396       H  0.45827003  0.30064890  0.95200575     0.05500
H1397       H  0.48473558  0.27643599  0.93462533    -0.00200
H1398       H  0.45199268  0.28807433  0.91484783     0.01300
H1399       H  0.56055131  0.38912947  0.88352635     0.04900
H1400       H  0.53397455  0.41613754  0.89590609     0.06900
H1401       H  0.52902847  0.39867758  0.86093385     0.07700
C1402       C  0.34876324  0.47493539  0.87714138    -0.21900
C1403       C  0.32447481  0.49104745  0.88783685     0.10100
C1404       C  0.32667714  0.50627476  0.91490616     0.10500
C1405       C  0.35380312  0.50624208  0.93003173    -0.16800
C1406       C  0.37846099  0.49080141  0.91892345    -0.27200
C1407       C  0.37580964  0.47462666  0.89230169     0.18800
C1408       C  0.29849002  0.49443481  0.86833753     0.12800
C1409       C  0.30034432  0.52215830  0.92789982    -0.11600
H1410       H  0.35568066  0.51801878  0.95081900     0.13100
C1411       C  0.40123626  0.45793916  0.87848757    -0.22400
H1412       H  0.34692757  0.46345047  0.85617267     0.08700
C1413       C  0.29667284  0.51877502  0.84900930     0.05000
C1414       C  0.27439991  0.51931584  0.82764256    -0.19700
C1415       C  0.25464303  0.49558141  0.82419226    -0.11900
C1416       C  0.25613080  0.47133027  0.84384728     0.13700
C1417       C  0.27777395  0.47138193  0.86615969    -0.22400
C1418       C  0.31957058  0.54310805  0.84937082    -0.05400
H1419       H  0.27367710  0.53748304  0.81203644     0.15300
C1420       C  0.23709756  0.44413440  0.84057419    -0.15600
H1421       H  0.27973914  0.45244943  0.88070635     0.09600
H1422       H  0.40515724  0.46638841  0.85581556     0.07500
H1423       H  0.39562405  0.43404423  0.87717069     0.08700
H1424       H  0.42227698  0.46028965  0.89080770     0.07700
H1425       H  0.28206417  0.50612828  0.93149923     0.02600
H1426       H  0.29252377  0.53976047  0.91276452     0.03100
H1427       H  0.30579235  0.53261116  0.94943121     0.06600
H1428       H  0.31516750  0.56002590  0.83216012     0.05500
H1429       H  0.34187321  0.53361638  0.84514879    -0.00200
H1430       H  0.31965551  0.55445878  0.87107417     0.01300
H1431       H  0.25147470  0.42437366  0.83773324     0.04900
H1432       H  0.22212094  0.44508192  0.82128817     0.06900
H1433       H  0.22340606  0.44124788  0.86072698     0.07700
C1434       C  0.32145512  0.47887313  0.09251139    -0.21900
C1435       C  0.32070535  0.49843001  0.11649792     0.10100
C1436       C  0.34503214  0.51729366  0.12187691     0.10500
C1437       C  0.36986796  0.51583155  0.10333439    -0.16800
C1438       C  0.37116634  0.49558980  0.07987965    -0.27200
C1439       C  0.34614331  0.47759938  0.07367758     0.18800
C1440       C  0.29576037  0.49687809  0.13760955     0.12800
C1441       C  0.34517832  0.53824930  0.14780423    -0.11600
H1442       H  0.38882557  0.52988342  0.10777739     0.13100
C1443       C  0.34395277  0.45775089  0.04697072    -0.22400
H1444       H  0.30260945  0.46455520  0.08844007     0.08700
C1445       C  0.27130791  0.51633301  0.13629380     0.05000
C1446       C  0.25098580  0.51698569  0.15987649    -0.19700
C1447       C  0.25477021  0.49846987  0.18444844    -0.11900
C1448       C  0.27790790  0.47721055  0.18427503     0.13700
C1449       C  0.29819179  0.47691032  0.16097840    -0.22400
C1450       C  0.26725827  0.53685096  0.11047209    -0.05400
H1451       H  0.23317625  0.53308618  0.15990327     0.15300
C1452       C  0.28216027  0.45463421  0.20841654    -0.15600
H1453       H  0.31669318  0.46157962  0.16152356     0.09600
H1454       H  0.32321905  0.46282344  0.03478564     0.07500
H1455       H  0.34334854  0.43425090  0.05408251     0.08700
H1456       H  0.36228677  0.46084513  0.03108945     0.07700
H1457       H  0.34299816  0.52557588  0.16866473     0.02600
H1458       H  0.32642799  0.55402989  0.14599427     0.03100
H1459       H  0.36602547  0.55125456  0.14891366     0.06600
H1460       H  0.24695427  0.55055446  0.11284626     0.05500
H1461       H  0.26530048  0.52368396  0.08984527    -0.00200
H1462       H  0.28655407  0.55193703  0.10858492     0.01300
H1463       H  0.28260532  0.43210432  0.19857835     0.04900
H1464       H  0.26415586  0.45481067  0.22502698     0.06900
H1465       H  0.30354960  0.45872885  0.21981133     0.07700
C1466       C  0.69231337  0.52691477  0.16246461    -0.21900
C1467       C  0.69518833  0.50369314  0.14226012     0.10100
C1468       C  0.72057623  0.48546961  0.14297130     0.10500
C1469       C  0.74157054  0.48952944  0.16557480    -0.16800
C1470       C  0.73756472  0.51155495  0.18710608    -0.27200
C1471       C  0.71326984  0.53131612  0.18469353     0.18800
C1472       C  0.67033203  0.49858344  0.12165849     0.12800
C1473       C  0.72493446  0.46132432  0.12047462    -0.11600
H1474       H  0.76015328  0.47444479  0.16743416     0.13100
C1475       C  0.70850300  0.55714047  0.20534505    -0.22400
H1476       H  0.67309908  0.54130831  0.16131122     0.08700
C1477       C  0.64531734  0.48197930  0.13033896     0.05000
C1478       C  0.62013155  0.48161627  0.11218594    -0.19700
C1479       C  0.61920767  0.49815086  0.08606195    -0.11900
C1480       C  0.64486567  0.51356052  0.07665220     0.13700
C1481       C  0.67012803  0.51361823  0.09470207    -0.22400
C1482       C  0.64495904  0.46538716  0.15915653    -0.05400
H1483       H  0.60068171  0.46928565  0.11894096     0.15300
C1484       C  0.64611252  0.52945776  0.04744674    -0.15600
H1485       H  0.68951610  0.52620282  0.08825060     0.09600
H1486       H  0.68767133  0.55386161  0.21797156     0.07500
H1487       H  0.70662504  0.57784323  0.19229879     0.08700
H1488       H  0.72694522  0.56033582  0.22115053     0.07700
H1489       H  0.72572348  0.47112895  0.09803286     0.02600
H1490       H  0.70630839  0.44533798  0.12163268     0.03100
H1491       H  0.74592862  0.44905423  0.12421631     0.06600
H1492       H  0.62372240  0.45344739  0.16252092     0.05500
H1493       H  0.64793166  0.48108485  0.17780470    -0.00200
H1494       H  0.66319063  0.44889160  0.15946305     0.01300
H1495       H  0.63093083  0.54871564  0.04756490     0.04900
H1496       H  0.63994641  0.51405470  0.02933082     0.06900
H1497       H  0.66868865  0.53801673  0.04274284     0.07700
loop_ 
_geom_bond_atom_site_label_1 
_geom_bond_atom_site_label_2 
_geom_bond_distance 
_geom_bond_site_symmetry_2 
_ccdc_geom_bond_type 
C1           N19   1.350       .  A
C1           C38   1.458       .  S
C1         C1246   1.472       .  S
N2           N19   1.324       .  A
N2           N24   1.321       .  A
N2          Co39   2.085       .  S
C3           N28   1.341       .  A
C3           C41   1.457       .  S
C3           H48   1.082       .  S
H4           C45   1.081       .  S
C5           N29   1.342       .  A
C5            C9   1.461       .  S
C5           H34   1.082       .  S
Co6          N24   2.082       .  S
Co6          N14   2.080       .  S
Co6          N46   2.074   1_554  S
Co6          N22   2.081   1_554  S
Co6         Cl50   2.452       .  S
N7           C45   1.338       .  A
N7           N14   1.320       .  A
N7           Co8   2.082       .  S
Co8          N11   2.086       .  S
Co8          N28   2.082   1_554  S
Co8          N15   2.080   1_554  S
Co8         Cl50   2.447       .  S
C9           N47   1.350       .  A
C9         C1287   1.477       .  S
N10          N17   1.321       .  A
N10          N40   1.324       .  A
N10         Co43   2.081       .  S
N11          N29   1.321       .  A
N11          N47   1.324       .  A
N12          C41   1.349       .  A
N12          N22   1.323       .  A
H13          C38   1.082       .  S
N14          N35   1.325       .  A
N15          N33   1.320       .  A
N15          N20   1.324       .  A
C16          N20   1.348       .  A
C16          C44   1.459       .  S
C16        C1319   1.471       .  S
N17          C32   1.340       .  A
N17         Co39   2.084       .  S
C18          N46   1.338       .  A
C18          C21   1.457       .  S
C18          H52   1.082       .  S
C21          N42   1.351       .  A
C21        C1383   1.474       .  S
N22          N28   1.321       .  A
N23          C49   1.339       .  A
N23          N25   1.321       .  A
N23         Co39   2.081   1_556  S
N24          C38   1.339       .  A
N25          N53   1.324       .  A
N25         Co43   2.087   1_556  S
H26          C49   1.082       .  S
H27          C44   1.081       .  S
N29         Co43   2.088       .  S
N30          N42   1.325       .  A
N30          N46   1.319       .  A
N30         Co39   2.086   1_556  S
C31          N35   1.349       .  A
C31          C45   1.459       .  S
C31        C1479   1.476       .  S
C32          C51   1.460       .  S
C32          H36   1.082       .  S
N33          C44   1.341       .  A
N33         Co43   2.084   1_556  S
C37          N53   1.351       .  A
C37          C49   1.458       .  S
C37        C1406   1.473       .  S
Co39        Cl50   2.448       .  S
N40          C51   1.349       .  A
C41        C1351   1.473       .  S
Co43        Cl50   2.453       .  S
C51        C1438   1.477       .  S
N54          C58   1.360       .  A
N54          C55   1.362       .  A
N54        C1214   1.449       .  S
C55        C1447   1.481       .  S
C55          C56   1.383       .  A
C56          H59   1.082       .  S
C56          C57   1.368       .  A
C57          H60   1.082       .  S
C57          C58   1.380       .  A
C58        C1191   1.477       .  S
N61          C65   1.361       .  A
N61          C62   1.365       .  A
N61        C1150   1.455       .  S
C62        C1470   1.479       .  S
C62          C63   1.383       .  A
C63          H66   1.082       .  S
C63          C64   1.365       .  A
C64          H67   1.082       .  S
C64          C65   1.379       .  A
C65        C1118   1.472       .  S
N68          C72   1.362       .  A
N68          C69   1.360       .  A
N68        C1086   1.452       .  S
C69        C1054   1.472       .  S
C69          C70   1.380       .  A
C70          H73   1.082       .  S
C70          C71   1.365       .  A
C71          H74   1.082       .  S
C71          C72   1.381       .  A
C72        C1415   1.476       .  S
N75          C79   1.360       .  A
N75          C76   1.360       .  A
N75        C1022   1.450       .  S
C76         C999   1.476       .  S
C76          C77   1.381       .  A
C77          H80   1.082       .  S
C77          C78   1.368       .  A
C78          H81   1.082       .  S
C78          C79   1.382       .  A
C79        C1342   1.476       .  S
N82          C87   1.357   1_655  A
N82          C86   1.356       .  A
N82         H114   1.028       .  S
N83          C90   1.356   1_554  A
N83          C91   1.355       .  A
N84          C89   1.357   1_655  A
N84          C88   1.358       .  A
N84         H115   1.031       .  S
N85          C92   1.357   1_554  A
N85          C93   1.356       .  A
C86          C94   1.387       .  A
C86         C102   1.425       .  A
C87         C103   1.428       .  A
C87          C95   1.389       .  A
C88          C96   1.388       .  A
C88         C105   1.428       .  A
C89         C104   1.428       .  A
C89          C97   1.387       .  A
C90         C102   1.423       .  A
C90          C98   1.386       .  A
C91         C105   1.424       .  A
C91          C99   1.388       .  A
C92         C100   1.388       .  A
C92         C103   1.428       .  A
C93         C101   1.386       .  A
C93         C104   1.426       .  A
C94         H106   1.082       .  S
C94          C95   1.373   1_655  A
C95         H107   1.081       .  S
C96         H108   1.081       .  S
C96          C97   1.376   1_655  A
C97         H109   1.082       .  S
C98         H110   1.082       .  S
C98          C99   1.369   1_556  A
C99         H111   1.081       .  S
C100        H112   1.080       .  S
C100        C101   1.371   1_556  A
C101        H113   1.082       .  S
C102       C1031   1.503       .  S
C103       C1095   1.507       .  S
C104       C1223   1.509       .  S
C105       C1159   1.505       .  S
C116        N134   1.349       .  A
C116        C153   1.460       .  S
C116       C1182   1.476       .  S
N117        N134   1.325       .  A
N117        N139   1.320       .  A
N117       Co154   2.087   1_455  S
C118        N143   1.343       .  A
C118        C156   1.460       .  S
C118        H163   1.082       .  S
H119        C160   1.081       .  S
C120        N144   1.338       .  A
C120        C124   1.457       .  S
C120        H149   1.082       .  S
Co121       N139   2.088   1_655  S
Co121       N129   2.080   1_655  S
Co121       N161   2.077       .  S
Co121       N137   2.084       .  S
Co121      Cl165   2.450       .  S
N122        C160   1.336       .  A
N122        N129   1.320       .  A
N122       Co123   2.071   1_455  S
Co123       N126   2.077   1_655  S
Co123       N143   2.086       .  S
Co123       N130   2.081       .  S
Co123      Cl165   2.446       .  S
C124        N162   1.348       .  A
C124       C1063   1.467       .  S
N125        N132   1.320       .  A
N125        N155   1.324       .  A
N125       Co158   2.083   1_455  S
N126        N144   1.319       .  A
N126        N162   1.323       .  A
N127        C156   1.348       .  A
N127        N137   1.324       .  A
H128        C153   1.081       .  S
N129        N150   1.323       .  A
N130        N148   1.321       .  A
N130        N135   1.323       .  A
C131        N135   1.348       .  A
C131        C159   1.459       .  S
C131        C990   1.470       .  S
N132        C147   1.340       .  A
N132       Co154   2.082   1_455  S
C133        N161   1.339       .  A
C133        C136   1.455       .  S
C133        H167   1.082       .  S
C136        N157   1.349       .  A
C136       C1127   1.468       .  S
N137        N143   1.321       .  A
N138        C164   1.343       .  A
N138        N140   1.320       .  A
N138       Co154   2.093       .  S
N139        C153   1.342       .  A
N140        N168   1.323       .  A
N140       Co158   2.075       .  S
H141        C164   1.081       .  S
H142        C159   1.082       .  S
N144       Co158   2.073   1_455  S
N145        N157   1.323       .  A
N145        N161   1.321       .  A
N145       Co154   2.084       .  S
C146        N150   1.349       .  A
C146        C160   1.455       .  S
C146        C958   1.466       .  S
C147        C166   1.459       .  S
C147        H151   1.081       .  S
N148        C159   1.341       .  A
N148       Co158   2.083       .  S
C152        N168   1.347       .  A
C152        C164   1.462       .  S
C152        C862   1.479       .  S
Co154      Cl165   2.447       .  S
N155        C166   1.349       .  A
C156        C894   1.475       .  S
Co158      Cl165   2.451       .  S
C166        C926   1.469       .  S
N169        C173   1.360       .  A
N169        C170   1.363       .  A
N169        C839   1.448       .  S
C170        C798   1.481       .  S
C170        C171   1.382       .  A
C171        H174   1.082       .  S
C171        C172   1.368       .  A
C172        H175   1.082       .  S
C172        C173   1.381       .  A
C173       C1278   1.479       .  S
N176        C180   1.359       .  A
N176        C177   1.361       .  A
N176        C775   1.449       .  S
C177       C1255   1.476       .  S
C177        C178   1.381       .  A
C178        H181   1.082       .  S
C178        C179   1.368       .  A
C179        H182   1.082       .  S
C179        C180   1.381       .  A
C180        C734   1.476       .  S
N183        C187   1.356       .  A
N183        C184   1.360       .  A
N183        C711   1.446       .  S
C184       C1374   1.477       .  S
C184        C185   1.382       .  A
C185        H188   1.082       .  S
C185        C186   1.369       .  A
C186        H189   1.082       .  S
C186        C187   1.380       .  A
C187        C670   1.472       .  S
N190        C194   1.360       .  A
N190        C191   1.356       .  A
N190        C638   1.446       .  S
C191        C606   1.472       .  S
C191        C192   1.380       .  A
C192        H195   1.082       .  S
C192        C193   1.370       .  A
C193        H196   1.082       .  S
C193        C194   1.381       .  A
C194       C1310   1.475       .  S
N197        C202   1.356       .  A
N197        C201   1.355   1_554  A
N197        H229   1.030       .  S
N198        C205   1.353   1_565  A
N198        C206   1.354       .  A
N199        C204   1.356       .  A
N199        C203   1.358   1_554  A
N199        H230   1.032       .  S
N200        C207   1.356   1_565  A
N200        C208   1.354       .  A
C201        C209   1.387       .  A
C201        C217   1.424       .  A
C202        C218   1.427       .  A
C202        C210   1.389       .  A
C203        C211   1.386       .  A
C203        C220   1.426       .  A
C204        C219   1.426       .  A
C204        C212   1.389       .  A
C205        C217   1.421       .  A
C205        C213   1.387       .  A
C206        C220   1.421       .  A
C206        C214   1.387       .  A
C207        C215   1.387       .  A
C207        C218   1.425       .  A
C208        C216   1.387       .  A
C208        C219   1.423       .  A
C209        H221   1.082       .  S
C209        C210   1.374   1_556  A
C210        H222   1.080       .  S
C211        H223   1.082       .  S
C211        C212   1.375   1_556  A
C212        H224   1.081       .  S
C213        H225   1.082       .  S
C213        C214   1.373   1_545  A
C214        H226   1.082       .  S
C215        H227   1.082       .  S
C215        C216   1.371   1_545  A
C216        H228   1.082       .  S
C217        C702   1.496       .  S
C218        C766   1.504       .  S
C219        C830   1.498       .  S
C220        C647   1.507       .  S
N231        C235   1.357       .  A
N231        C232   1.358       .  A
N231        C583   1.450       .  S
C232        C967   1.471       .  S
C232        C233   1.382       .  A
C233        H236   1.082       .  S
C233        C234   1.366       .  A
C234        H237   1.082       .  S
C234        C235   1.380       .  A
C235        C542   1.467       .  S
N238        C242   1.361       .  A
N238        C239   1.363       .  A
N238        C519   1.450       .  S
C239        C478   1.481       .  S
C239        C240   1.381       .  A
C240        H243   1.082       .  S
C240        C241   1.368       .  A
C241        H244   1.082       .  S
C241        C242   1.381       .  A
C242        C871   1.479       .  S
N245        C249   1.362       .  A
N245        C246   1.359       .  A
N245        C455   1.449       .  S
C246        C935   1.475       .  S
C246        C247   1.380       .  A
C247        H250   1.082       .  S
C247        C248   1.367       .  A
C248        H251   1.082       .  S
C248        C249   1.382       .  A
C249        C423   1.478       .  S
N252        C256   1.359       .  A
N252        C253   1.362       .  A
N252        C382   1.449       .  S
C253        C350   1.480       .  S
C253        C254   1.383       .  A
C254        H257   1.082       .  S
C254        C255   1.370       .  A
C255        H258   1.082       .  S
C255        C256   1.381       .  A
C256        C903   1.479       .  S
N259        C264   1.357       .  A
N259        C263   1.358   1_565  A
N259        H291   1.031       .  S
N260        C267   1.355       .  A
N260        C268   1.355   1_655  A
N261        C266   1.358       .  A
N261        C265   1.358   1_565  A
N261        H292   1.031       .  S
N262        C269   1.355       .  A
N262        C270   1.355   1_655  A
C263        C271   1.388       .  A
C263        C279   1.428       .  A
C264        C280   1.426       .  A
C264        C272   1.387       .  A
C265        C273   1.389       .  A
C265        C282   1.429       .  A
C266        C281   1.428       .  A
C266        C274   1.387       .  A
C267        C279   1.425       .  A
C267        C275   1.387       .  A
C268        C282   1.425       .  A
C268        C276   1.387       .  A
C269        C277   1.387       .  A
C269        C280   1.424       .  A
C270        C278   1.387       .  A
C270        C281   1.425       .  A
C271        H283   1.081       .  S
C271        C272   1.373   1_545  A
C272        H284   1.082       .  S
C273        H285   1.081       .  S
C273        C274   1.371   1_545  A
C274        H286   1.082       .  S
C275        H287   1.082       .  S
C275        C276   1.369   1_655  A
C276        H288   1.081       .  S
C277        H289   1.081       .  S
C277        C278   1.369   1_655  A
C278        H290   1.081       .  S
C279        C510   1.504       .  S
C280        C391   1.502       .  S
C281        C574   1.507       .  S
C282        C446   1.504       .  S
C293        N311   1.348       .  A
C293        C330   1.462       .  S
C293        C807   1.480       .  S
N294        N311   1.322       .  A
N294        N316   1.319       .  A
N294       Co331   2.076       .  S
C295        N320   1.341       .  A
C295        C333   1.461       .  S
C295        H340   1.082       .  S
H296        C337   1.082       .  S
C297        N321   1.339       .  A
C297        C301   1.458       .  S
C297        H326   1.082       .  S
Co298       N316   2.083   1_545  S
Co298       N306   2.084   1_545  S
Co298       N338   2.090       .  S
Co298       N314   2.082       .  S
Co298      Cl342   2.450   1_545  S
N299        C337   1.341       .  A
N299        N306   1.321       .  A
N299       Co300   2.087       .  S
Co300       N303   2.085       .  S
Co300       N320   2.084   1_565  S
Co300       N307   2.084   1_565  S
Co300      Cl342   2.447       .  S
C301        N339   1.351       .  A
C301        C615   1.474       .  S
N302        N309   1.318       .  A
N302        N332   1.322       .  A
N302       Co335   2.075       .  S
N303        N321   1.319       .  A
N303        N339   1.324       .  A
N304        C333   1.350       .  A
N304        N314   1.323       .  A
H305        C330   1.082       .  S
N306        N327   1.324       .  A
N307        N325   1.321       .  A
N307        N312   1.323       .  A
C308        N312   1.348       .  A
C308        C336   1.456       .  S
C308        C679   1.466       .  S
N309        C324   1.337       .  A
N309       Co331   2.071       .  S
C310        N338   1.342       .  A
C310        C313   1.462       .  S
C310        H344   1.082       .  S
C313        N334   1.346       .  A
C313        C743   1.477       .  S
N314        N320   1.320       .  A
N315        C341   1.341       .  A
N315        N317   1.319       .  A
N315       Co331   2.081   1_545  S
N316        C330   1.342       .  A
N317        N345   1.324       .  A
N317       Co335   2.082   1_545  S
H318        C341   1.082       .  S
H319        C336   1.082       .  S
N321       Co335   2.075       .  S
N322        N334   1.322       .  A
N322        N338   1.320       .  A
N322       Co331   2.072   1_545  S
C323        N327   1.348       .  A
C323        C337   1.461       .  S
C323        C359   1.476       .  S
C324        C343   1.457       .  S
C324        H328   1.082       .  S
N325        C336   1.340       .  A
N325       Co335   2.079   1_545  S
C329        N345   1.349       .  A
C329        C341   1.459       .  S
C329        C414   1.479       .  S
Co331      Cl342   2.443       .  S
N332        C343   1.348       .  A
C333        C487   1.476       .  S
Co335      Cl342   2.450       .  S
C343        C551   1.462       .  S
C346        H356   1.085       .  S
C346        C347   1.396       .  A
C346        C351   1.395       .  A
C347        C352   1.478       .  S
C347        C348   1.412       .  A
C348        C349   1.409       .  A
C348        C353   1.505       .  S
C349        H354   1.084       .  S
C349        C350   1.405       .  A
C350        C351   1.418       .  A
C351        C355   1.509       .  S
C352        C357   1.411       .  A
C352        C361   1.399       .  A
C353        H369   1.110       .  S
C353        H370   1.110       .  S
C353        H371   1.111       .  S
C355        H366   1.110       .  S
C355        H367   1.111       .  S
C355        H368   1.107       .  S
C357        C358   1.403       .  A
C357        C362   1.507       .  S
C358        H363   1.084       .  S
C358        C359   1.402       .  A
C359        C360   1.419       .  A
C360        C361   1.404       .  A
C360        C364   1.508       .  S
C361        H365   1.085       .  S
C362        H372   1.111       .  S
C362        H373   1.110       .  S
C362        H374   1.110       .  S
C364        H375   1.110       .  S
C364        H376   1.105       .  S
C364        H377   1.111       .  S
C378        H388   1.084       .  S
C378        C379   1.403       .  A
C378        C383   1.404       .  A
C379        C384   1.486       .  S
C379        C380   1.412       .  A
C380        C381   1.404       .  A
C380        C385   1.509       .  S
C381        H386   1.083       .  S
C381        C382   1.407       .  A
C382        C383   1.416       .  A
C383        C387   1.503       .  S
C384        C389   1.414       .  A
C384        C393   1.402       .  A
C385        H401   1.110       .  S
C385        H402   1.106       .  S
C385        H403   1.111       .  S
C387        H398   1.110       .  S
C387        H399   1.111       .  S
C387        H400   1.106       .  S
C389        C390   1.406       .  A
C389        C394   1.510       .  S
C390        H395   1.084       .  S
C390        C391   1.407       .  A
C391        C392   1.419       .  A
C392        C393   1.404       .  A
C392        C396   1.507       .  S
C393        H397   1.085       .  S
C394        H404   1.111       .  S
C394        H405   1.110       .  S
C394        H406   1.106       .  S
C396        H407   1.110       .  S
C396        H408   1.108       .  S
C396        H409   1.110       .  S
C410        H420   1.084       .  S
C410        C411   1.400       .  A
C410        C415   1.406       .  A
C411        C416   1.480       .  S
C411        C412   1.412       .  A
C412        C413   1.402       .  A
C412        C417   1.508       .  S
C413        H418   1.084       .  S
C413        C414   1.402       .  A
C414        C415   1.418       .  A
C415        C419   1.507       .  S
C416        C421   1.412       .  A
C416        C425   1.398       .  A
C417        H433   1.110       .  S
C417        H434   1.109       .  S
C417        H435   1.111       .  S
C419        H430   1.111       .  S
C419        H431   1.109       .  S
C419        H432   1.110       .  S
C421        C422   1.407       .  A
C421        C426   1.506       .  S
C422        H427   1.084       .  S
C422        C423   1.403       .  A
C423        C424   1.417       .  A
C424        C425   1.398       .  A
C424        C428   1.509       .  S
C425        H429   1.085       .  S
C426        H436   1.111       .  S
C426        H437   1.110       .  S
C426        H438   1.109       .  S
C428        H439   1.110       .  S
C428        H440   1.107       .  S
C428        H441   1.110       .  S
C442        H452   1.084       .  S
C442        C443   1.404       .  A
C442        C447   1.405       .  A
C443        C448   1.491       .  S
C443        C444   1.414       .  A
C444        C445   1.406       .  A
C444        C449   1.510       .  S
C445        H450   1.084       .  S
C445        C446   1.407       .  A
C446        C447   1.419       .  A
C447        C451   1.508       .  S
C448        C453   1.415       .  A
C448        C457   1.403       .  A
C449        H465   1.110       .  S
C449        H466   1.105       .  S
C449        H467   1.111       .  S
C451        H462   1.110       .  S
C451        H463   1.110       .  S
C451        H464   1.108       .  S
C453        C454   1.407       .  A
C453        C458   1.510       .  S
C454        H459   1.083       .  S
C454        C455   1.406       .  A
C455        C456   1.416       .  A
C456        C457   1.404       .  A
C456        C460   1.504       .  S
C457        H461   1.084       .  S
C458        H468   1.111       .  S
C458        H469   1.110       .  S
C458        H470   1.105       .  S
C460        H471   1.111       .  S
C460        H472   1.105       .  S
C460        H473   1.110       .  S
C474        H484   1.084       .  S
C474        C475   1.403       .  A
C474        C479   1.407       .  A
C475        C480   1.481       .  S
C475        C476   1.410       .  A
C476        C477   1.400       .  A
C476        C481   1.509       .  S
C477        H482   1.084       .  S
C477        C478   1.405       .  A
C478        C479   1.416       .  A
C479        C483   1.506       .  S
C480        C485   1.408       .  A
C480        C489   1.403       .  A
C481        H497   1.110       .  S
C481        H498   1.109       .  S
C481        H499   1.111       .  S
C483        H494   1.110       .  S
C483        H495   1.110       .  S
C483        H496   1.105       .  S
C485        C486   1.404       .  A
C485        C490   1.506       .  S
C486        H491   1.084       .  S
C486        C487   1.406       .  A
C487        C488   1.414       .  A
C488        C489   1.403       .  A
C488        C492   1.508       .  S
C489        H493   1.085       .  S
C490        H500   1.111       .  S
C490        H501   1.110       .  S
C490        H502   1.108       .  S
C492        H503   1.110       .  S
C492        H504   1.107       .  S
C492        H505   1.110       .  S
C506        H516   1.084       .  S
C506        C507   1.403       .  A
C506        C511   1.405       .  A
C507        C512   1.490       .  S
C507        C508   1.414       .  A
C508        C509   1.407       .  A
C508        C513   1.509       .  S
C509        H514   1.084       .  S
C509        C510   1.407       .  A
C510        C511   1.419       .  A
C511        C515   1.508       .  S
C512        C517   1.414       .  A
C512        C521   1.403       .  A
C513        H529   1.110       .  S
C513        H530   1.106       .  S
C513        H531   1.111       .  S
C515        H526   1.110       .  S
C515        H527   1.110       .  S
C515        H528   1.108       .  S
C517        C518   1.406       .  A
C517        C522   1.509       .  S
C518        H523   1.083       .  S
C518        C519   1.406       .  A
C519        C520   1.417       .  A
C520        C521   1.405       .  A
C520        C524   1.504       .  S
C521        H525   1.084       .  S
C522        H532   1.111       .  S
C522        H533   1.110       .  S
C522        H534   1.106       .  S
C524        H535   1.111       .  S
C524        H536   1.107       .  S
C524        H537   1.110       .  S
C538        H548   1.085       .  S
C538        C539   1.398       .  A
C538        C543   1.397       .  A
C539        C544   1.471       .  S
C539        C540   1.410       .  A
C540        C541   1.403       .  A
C540        C545   1.506       .  S
C541        H546   1.084       .  S
C541        C542   1.401       .  A
C542        C543   1.413       .  A
C543        C547   1.507       .  S
C544        C549   1.412       .  A
C544        C553   1.398       .  A
C545        H561   1.110       .  S
C545        H562   1.110       .  S
C545        H563   1.111       .  S
C547        H558   1.110       .  S
C547        H559   1.110       .  S
C547        H560   1.109       .  S
C549        C550   1.400       .  A
C549        C554   1.507       .  S
C550        H555   1.084       .  S
C550        C551   1.398       .  A
C551        C552   1.414       .  A
C552        C553   1.400       .  A
C552        C556   1.508       .  S
C553        H557   1.084       .  S
C554        H564   1.111       .  S
C554        H565   1.110       .  S
C554        H566   1.110       .  S
C556        H567   1.109       .  S
C556        H568   1.110       .  S
C556        H569   1.111       .  S
C570        H580   1.084       .  S
C570        C571   1.403       .  A
C570        C575   1.406       .  A
C571        C576   1.491       .  S
C571        C572   1.413       .  A
C572        C573   1.406       .  A
C572        C577   1.510       .  S
C573        H578   1.084       .  S
C573        C574   1.408       .  A
C574        C575   1.420       .  A
C575        C579   1.508       .  S
C576        C581   1.415       .  A
C576        C585   1.403       .  A
C577        H593   1.110       .  S
C577        H594   1.105       .  S
C577        H595   1.111       .  S
C579        H590   1.110       .  S
C579        H591   1.110       .  S
C579        H592   1.108       .  S
C581        C582   1.406       .  A
C581        C586   1.510       .  S
C582        H587   1.082       .  S
C582        C583   1.406       .  A
C583        C584   1.417       .  A
C584        C585   1.405       .  A
C584        C588   1.504       .  S
C585        H589   1.084       .  S
C586        H596   1.111       .  S
C586        H597   1.110       .  S
C586        H598   1.105       .  S
C588        H599   1.111       .  S
C588        H600   1.106       .  S
C588        H601   1.110       .  S
C602        H612   1.084       .  S
C602        C603   1.401       .  A
C602        C607   1.400       .  A
C603        C608   1.481       .  S
C603        C604   1.412       .  A
C604        C605   1.405       .  A
C604        C609   1.506       .  S
C605        H610   1.084       .  S
C605        C606   1.401       .  A
C606        C607   1.412       .  A
C607        C611   1.507       .  S
C608        C613   1.409       .  A
C608        C617   1.402       .  A
C609        H625   1.109       .  S
C609        H626   1.110       .  S
C609        H627   1.111       .  S
C611        H622   1.110       .  S
C611        H623   1.110       .  S
C611        H624   1.109       .  S
C613        C614   1.404       .  A
C613        C618   1.506       .  S
C614        H619   1.084       .  S
C614        C615   1.405       .  A
C615        C616   1.415       .  A
C616        C617   1.401       .  A
C616        C620   1.508       .  S
C617        H621   1.085       .  S
C618        H628   1.111       .  S
C618        H629   1.109       .  S
C618        H630   1.111       .  S
C620        H631   1.110       .  S
C620        H632   1.106       .  S
C620        H633   1.111       .  S
C634        H644   1.084       .  S
C634        C635   1.405       .  A
C634        C639   1.406       .  A
C635        C640   1.496       .  S
C635        C636   1.415       .  A
C636        C637   1.408       .  A
C636        C641   1.506       .  S
C637        H642   1.083       .  S
C637        C638   1.404       .  A
C638        C639   1.414       .  A
C639        C643   1.504       .  S
C640        C645   1.414       .  A
C640        C649   1.405       .  A
C641        H657   1.109       .  S
C641        H658   1.110       .  S
C641        H659   1.111       .  S
C643        H654   1.111       .  S
C643        H655   1.110       .  S
C643        H656   1.107       .  S
C645        C646   1.407       .  A
C645        C650   1.507       .  S
C646        H651   1.084       .  S
C646        C647   1.407       .  A
C647        C648   1.419       .  A
C648        C649   1.409       .  A
C648        C652   1.507       .  S
C649        H653   1.084       .  S
C650        H660   1.111       .  S
C650        H661   1.108       .  S
C650        H662   1.111       .  S
C652        H663   1.110       .  S
C652        H664   1.108       .  S
C652        H665   1.110       .  S
C666        H676   1.085       .  S
C666        C667   1.399       .  A
C666        C671   1.398       .  A
C667        C672   1.475       .  S
C667        C668   1.410       .  A
C668        C669   1.405       .  A
C668        C673   1.505       .  S
C669        H674   1.084       .  S
C669        C670   1.402       .  A
C670        C671   1.413       .  A
C671        C675   1.507       .  S
C672        C677   1.413       .  A
C672        C681   1.400       .  A
C673        H689   1.110       .  S
C673        H690   1.110       .  S
C673        H691   1.111       .  S
C675        H686   1.110       .  S
C675        H687   1.110       .  S
C675        H688   1.109       .  S
C677        C678   1.402       .  A
C677        C682   1.507       .  S
C678        H683   1.084       .  S
C678        C679   1.398       .  A
C679        C680   1.413       .  A
C680        C681   1.402       .  A
C680        C684   1.507       .  S
C681        H685   1.084       .  S
C682        H692   1.111       .  S
C682        H693   1.110       .  S
C682        H694   1.110       .  S
C684        H695   1.110       .  S
C684        H696   1.111       .  S
C684        H697   1.111       .  S
C698        H708   1.084       .  S
C698        C699   1.400       .  A
C698        C703   1.403       .  A
C699        C704   1.484       .  S
C699        C700   1.413       .  A
C700        C701   1.406       .  A
C700        C705   1.508       .  S
C701        H706   1.084       .  S
C701        C702   1.406       .  A
C702        C703   1.418       .  A
C703        C707   1.508       .  S
C704        C709   1.412       .  A
C704        C713   1.403       .  A
C705        H721   1.110       .  S
C705        H722   1.107       .  S
C705        H723   1.111       .  S
C707        H718   1.110       .  S
C707        H719   1.110       .  S
C707        H720   1.107       .  S
C709        C710   1.403       .  A
C709        C714   1.508       .  S
C710        H715   1.083       .  S
C710        C711   1.405       .  A
C711        C712   1.415       .  A
C712        C713   1.405       .  A
C712        C716   1.504       .  S
C713        H717   1.084       .  S
C714        H724   1.111       .  S
C714        H725   1.110       .  S
C714        H726   1.107       .  S
C716        H727   1.111       .  S
C716        H728   1.108       .  S
C716        H729   1.110       .  S
C730        H740   1.085       .  S
C730        C731   1.399       .  A
C730        C735   1.398       .  A
C731        C736   1.477       .  S
C731        C732   1.412       .  A
C732        C733   1.404       .  A
C732        C737   1.506       .  S
C733        H738   1.084       .  S
C733        C734   1.402       .  A
C734        C735   1.414       .  A
C735        C739   1.507       .  S
C736        C741   1.413       .  A
C736        C745   1.399       .  A
C737        H753   1.110       .  S
C737        H754   1.108       .  S
C737        H755   1.111       .  S
C739        H750   1.110       .  S
C739        H751   1.111       .  S
C739        H752   1.109       .  S
C741        C742   1.402       .  A
C741        C746   1.508       .  S
C742        H747   1.084       .  S
C742        C743   1.401       .  A
C743        C744   1.419       .  A
C744        C745   1.403       .  A
C744        C748   1.508       .  S
C745        H749   1.084       .  S
C746        H756   1.111       .  S
C746        H757   1.110       .  S
C746        H758   1.108       .  S
C748        H759   1.111       .  S
C748        H760   1.110       .  S
C748        H761   1.110       .  S
C762        H772   1.084       .  S
C762        C763   1.403       .  A
C762        C767   1.405       .  A
C763        C768   1.490       .  S
C763        C764   1.414       .  A
C764        C765   1.407       .  A
C764        C769   1.510       .  S
C765        H770   1.084       .  S
C765        C766   1.407       .  A
C766        C767   1.419       .  A
C767        C771   1.508       .  S
C768        C773   1.414       .  A
C768        C777   1.404       .  A
C769        H785   1.110       .  S
C769        H786   1.105       .  S
C769        H787   1.111       .  S
C771        H782   1.110       .  S
C771        H783   1.110       .  S
C771        H784   1.107       .  S
C773        C774   1.405       .  A
C773        C778   1.510       .  S
C774        H779   1.083       .  S
C774        C775   1.406       .  A
C775        C776   1.416       .  A
C776        C777   1.406       .  A
C776        C780   1.504       .  S
C777        H781   1.084       .  S
C778        H788   1.111       .  S
C778        H789   1.110       .  S
C778        H790   1.105       .  S
C780        H791   1.111       .  S
C780        H792   1.107       .  S
C780        H793   1.110       .  S
C794        H804   1.084       .  S
C794        C795   1.403       .  A
C794        C799   1.407       .  A
C795        C800   1.481       .  S
C795        C796   1.409       .  A
C796        C797   1.398       .  A
C796        C801   1.508       .  S
C797        H802   1.085       .  S
C797        C798   1.404       .  A
C798        C799   1.416       .  A
C799        C803   1.506       .  S
C800        C805   1.412       .  A
C800        C809   1.399       .  A
C801        H817   1.110       .  S
C801        H818   1.111       .  S
C801        H819   1.111       .  S
C803        H814   1.110       .  S
C803        H815   1.110       .  S
C803        H816   1.105       .  S
C805        C806   1.403       .  A
C805        C810   1.507       .  S
C806        H811   1.084       .  S
C806        C807   1.402       .  A
C807        C808   1.419       .  A
C808        C809   1.403       .  A
C808        C812   1.508       .  S
C809        H813   1.084       .  S
C810        H820   1.111       .  S
C810        H821   1.110       .  S
C810        H822   1.110       .  S
C812        H823   1.111       .  S
C812        H824   1.110       .  S
C812        H825   1.109       .  S
C826        H836   1.084       .  S
C826        C827   1.404       .  A
C826        C831   1.403       .  A
C827        C832   1.495       .  S
C827        C828   1.416       .  A
C828        C829   1.407       .  A
C828        C833   1.507       .  S
C829        H834   1.084       .  S
C829        C830   1.404       .  A
C830        C831   1.417       .  A
C831        C835   1.508       .  S
C832        C837   1.416       .  A
C832        C841   1.405       .  A
C833        H849   1.108       .  S
C833        H850   1.110       .  S
C833        H851   1.111       .  S
C835        H846   1.111       .  S
C835        H847   1.110       .  S
C835        H848   1.108       .  S
C837        C838   1.404       .  A
C837        C842   1.508       .  S
C838        H843   1.083       .  S
C838        C839   1.404       .  A
C839        C840   1.416       .  A
C840        C841   1.406       .  A
C840        C844   1.505       .  S
C841        H845   1.084       .  S
C842        H852   1.111       .  S
C842        H853   1.108       .  S
C842        H854   1.110       .  S
C844        H855   1.110       .  S
C844        H856   1.107       .  S
C844        H857   1.111       .  S
C858        H868   1.084       .  S
C858        C859   1.400       .  A
C858        C863   1.405       .  A
C859        C864   1.482       .  S
C859        C860   1.413       .  A
C860        C861   1.405       .  A
C860        C865   1.507       .  S
C861        H866   1.084       .  S
C861        C862   1.401       .  A
C862        C863   1.417       .  A
C863        C867   1.507       .  S
C864        C869   1.413       .  A
C864        C873   1.399       .  A
C865        H881   1.110       .  S
C865        H882   1.108       .  S
C865        H883   1.111       .  S
C867        H878   1.111       .  S
C867        H879   1.109       .  S
C867        H880   1.109       .  S
C869        C870   1.408       .  A
C869        C874   1.505       .  S
C870        H875   1.084       .  S
C870        C871   1.403       .  A
C871        C872   1.416       .  A
C872        C873   1.399       .  A
C872        C876   1.508       .  S
C873        H877   1.085       .  S
C874        H884   1.111       .  S
C874        H885   1.110       .  S
C874        H886   1.109       .  S
C876        H887   1.111       .  S
C876        H888   1.109       .  S
C876        H889   1.110       .  S
C890        H900   1.085       .  S
C890        C891   1.400       .  A
C890        C895   1.404       .  A
C891        C896   1.481       .  S
C891        C892   1.413       .  A
C892        C893   1.404       .  A
C892        C897   1.507       .  S
C893        H898   1.084       .  S
C893        C894   1.401       .  A
C894        C895   1.418       .  A
C895        C899   1.508       .  S
C896        C901   1.411       .  A
C896        C905   1.400       .  A
C897        H913   1.110       .  S
C897        H914   1.109       .  S
C897        H915   1.111       .  S
C899        H910   1.111       .  S
C899        H911   1.110       .  S
C899        H912   1.107       .  S
C901        C902   1.406       .  A
C901        C906   1.505       .  S
C902        H907   1.084       .  S
C902        C903   1.403       .  A
C903        C904   1.414       .  A
C904        C905   1.400       .  A
C904        C908   1.507       .  S
C905        H909   1.085       .  S
C906        H916   1.111       .  S
C906        H917   1.110       .  S
C906        H918   1.109       .  S
C908        H919   1.110       .  S
C908        H920   1.108       .  S
C908        H921   1.110       .  S
C922        H932   1.084       .  S
C922        C923   1.398       .  A
C922        C927   1.402       .  A
C923        C928   1.477       .  S
C923        C924   1.413       .  A
C924        C925   1.403       .  A
C924        C929   1.507       .  S
C925        H930   1.084       .  S
C925        C926   1.400       .  A
C926        C927   1.417       .  A
C927        C931   1.508       .  S
C928        C933   1.412       .  A
C928        C937   1.398       .  A
C929        H945   1.110       .  S
C929        H946   1.110       .  S
C929        H947   1.111       .  S
C931        H942   1.110       .  S
C931        H943   1.110       .  S
C931        H944   1.107       .  S
C933        C934   1.405       .  A
C933        C938   1.505       .  S
C934        H939   1.084       .  S
C934        C935   1.402       .  A
C935        C936   1.415       .  A
C936        C937   1.398       .  A
C936        C940   1.507       .  S
C937        H941   1.085       .  S
C938        H948   1.111       .  S
C938        H949   1.110       .  S
C938        H950   1.110       .  S
C940        H951   1.110       .  S
C940        H952   1.109       .  S
C940        H953   1.111       .  S
C954        H964   1.084       .  S
C954        C955   1.397       .  A
C954        C959   1.401       .  A
C955        C960   1.470       .  S
C955        C956   1.412       .  A
C956        C957   1.399       .  A
C956        C961   1.508       .  S
C957        H962   1.084       .  S
C957        C958   1.398       .  A
C958        C959   1.417       .  A
C959        C963   1.508       .  S
C960        C965   1.409       .  A
C960        C969   1.397       .  A
C961        H977   1.110       .  S
C961        H978   1.110       .  S
C961        H979   1.111       .  S
C963        H974   1.111       .  S
C963        H975   1.108       .  S
C963        H976   1.110       .  S
C965        C966   1.403       .  A
C965        C970   1.505       .  S
C966        H971   1.084       .  S
C966        C967   1.403       .  A
C967        C968   1.415       .  A
C968        C969   1.394       .  A
C968        C972   1.509       .  S
C969        H973   1.085       .  S
C970        H980   1.111       .  S
C970        H981   1.110       .  S
C970        H982   1.110       .  S
C972        H983   1.110       .  S
C972        H984   1.108       .  S
C972        H985   1.110       .  S
C986        H996   1.085       .  S
C986        C987   1.402       .  A
C986        C991   1.401       .  A
C987        C992   1.476       .  S
C987        C988   1.407       .  A
C988        C989   1.403       .  A
C988        C993   1.506       .  S
C989        H994   1.084       .  S
C989        C990   1.405       .  A
C990        C991   1.413       .  A
C991        C995   1.508       .  S
C992        C997   1.409       .  A
C992       C1001   1.402       .  A
C993       H1009   1.110       .  S
C993       H1010   1.109       .  S
C993       H1011   1.111       .  S
C995       H1006   1.111       .  S
C995       H1007   1.110       .  S
C995       H1008   1.107       .  S
C997        C998   1.398       .  A
C997       C1002   1.508       .  S
C998       H1003   1.085       .  S
C998        C999   1.403       .  A
C999       C1000   1.415       .  A
C1000      C1001   1.404       .  A
C1000      C1004   1.506       .  S
C1001      H1005   1.084       .  S
C1002      H1012   1.111       .  S
C1002      H1013   1.110       .  S
C1002      H1014   1.109       .  S
C1004      H1015   1.110       .  S
C1004      H1016   1.105       .  S
C1004      H1017   1.110       .  S
C1018      H1028   1.085       .  S
C1018      C1019   1.402       .  A
C1018      C1023   1.404       .  A
C1019      C1024   1.489       .  S
C1019      C1020   1.414       .  A
C1020      C1021   1.406       .  A
C1020      C1025   1.509       .  S
C1021      H1026   1.082       .  S
C1021      C1022   1.406       .  A
C1022      C1023   1.418       .  A
C1023      C1027   1.504       .  S
C1024      C1029   1.413       .  A
C1024      C1033   1.403       .  A
C1025      H1041   1.110       .  S
C1025      H1042   1.106       .  S
C1025      H1043   1.111       .  S
C1027      H1038   1.110       .  S
C1027      H1039   1.111       .  S
C1027      H1040   1.104       .  S
C1029      C1030   1.407       .  A
C1029      C1034   1.509       .  S
C1030      H1035   1.084       .  S
C1030      C1031   1.407       .  A
C1031      C1032   1.418       .  A
C1032      C1033   1.405       .  A
C1032      C1036   1.508       .  S
C1033      H1037   1.084       .  S
C1034      H1044   1.111       .  S
C1034      H1045   1.111       .  S
C1034      H1046   1.106       .  S
C1036      H1047   1.111       .  S
C1036      H1048   1.108       .  S
C1036      H1049   1.110       .  S
C1050      H1060   1.085       .  S
C1050      C1051   1.402       .  A
C1050      C1055   1.403       .  A
C1051      C1056   1.472       .  S
C1051      C1052   1.410       .  A
C1052      C1053   1.396       .  A
C1052      C1057   1.510       .  S
C1053      H1058   1.085       .  S
C1053      C1054   1.402       .  A
C1054      C1055   1.413       .  A
C1055      C1059   1.506       .  S
C1056      C1061   1.408       .  A
C1056      C1065   1.401       .  A
C1057      H1073   1.110       .  S
C1057      H1074   1.107       .  S
C1057      H1075   1.111       .  S
C1059      H1070   1.110       .  S
C1059      H1071   1.111       .  S
C1059      H1072   1.106       .  S
C1061      C1062   1.402       .  A
C1061      C1066   1.507       .  S
C1062      H1067   1.084       .  S
C1062      C1063   1.405       .  A
C1063      C1064   1.412       .  A
C1064      C1065   1.398       .  A
C1064      C1068   1.508       .  S
C1065      H1069   1.085       .  S
C1066      H1076   1.111       .  S
C1066      H1077   1.110       .  S
C1066      H1078   1.108       .  S
C1068      H1079   1.110       .  S
C1068      H1080   1.107       .  S
C1068      H1081   1.110       .  S
C1082      H1092   1.084       .  S
C1082      C1083   1.403       .  A
C1082      C1087   1.405       .  A
C1083      C1088   1.492       .  S
C1083      C1084   1.414       .  A
C1084      C1085   1.407       .  A
C1084      C1089   1.509       .  S
C1085      H1090   1.082       .  S
C1085      C1086   1.408       .  A
C1086      C1087   1.418       .  A
C1087      C1091   1.505       .  S
C1088      C1093   1.414       .  A
C1088      C1097   1.403       .  A
C1089      H1105   1.110       .  S
C1089      H1106   1.105       .  S
C1089      H1107   1.111       .  S
C1091      H1102   1.110       .  S
C1091      H1103   1.111       .  S
C1091      H1104   1.106       .  S
C1093      C1094   1.408       .  A
C1093      C1098   1.509       .  S
C1094      H1099   1.084       .  S
C1094      C1095   1.408       .  A
C1095      C1096   1.420       .  A
C1096      C1097   1.405       .  A
C1096      C1100   1.508       .  S
C1097      H1101   1.085       .  S
C1098      H1108   1.111       .  S
C1098      H1109   1.110       .  S
C1098      H1110   1.105       .  S
C1100      H1111   1.110       .  S
C1100      H1112   1.107       .  S
C1100      H1113   1.111       .  S
C1114      H1124   1.085       .  S
C1114      C1115   1.398       .  A
C1114      C1119   1.397       .  A
C1115      C1120   1.474       .  S
C1115      C1116   1.411       .  A
C1116      C1117   1.404       .  A
C1116      C1121   1.505       .  S
C1117      H1122   1.084       .  S
C1117      C1118   1.401       .  A
C1118      C1119   1.414       .  A
C1119      C1123   1.507       .  S
C1120      C1125   1.412       .  A
C1120      C1129   1.397       .  A
C1121      H1137   1.110       .  S
C1121      H1138   1.109       .  S
C1121      H1139   1.111       .  S
C1123      H1134   1.110       .  S
C1123      H1135   1.111       .  S
C1123      H1136   1.109       .  S
C1125      C1126   1.402       .  A
C1125      C1130   1.507       .  S
C1126      H1131   1.084       .  S
C1126      C1127   1.400       .  A
C1127      C1128   1.416       .  A
C1128      C1129   1.400       .  A
C1128      C1132   1.506       .  S
C1129      H1133   1.085       .  S
C1130      H1140   1.111       .  S
C1130      H1141   1.110       .  S
C1130      H1142   1.109       .  S
C1132      H1143   1.110       .  S
C1132      H1144   1.106       .  S
C1132      H1145   1.110       .  S
C1146      H1156   1.084       .  S
C1146      C1147   1.405       .  A
C1146      C1151   1.410       .  A
C1147      C1152   1.494       .  S
C1147      C1148   1.413       .  A
C1148      C1149   1.404       .  A
C1148      C1153   1.510       .  S
C1149      H1154   1.081       .  S
C1149      C1150   1.407       .  A
C1150      C1151   1.421       .  A
C1151      C1155   1.505       .  S
C1152      C1157   1.414       .  A
C1152      C1161   1.405       .  A
C1153      H1169   1.110       .  S
C1153      H1170   1.105       .  S
C1153      H1171   1.111       .  S
C1155      H1166   1.110       .  S
C1155      H1167   1.111       .  S
C1155      H1168   1.106       .  S
C1157      C1158   1.406       .  A
C1157      C1162   1.510       .  S
C1158      H1163   1.084       .  S
C1158      C1159   1.407       .  A
C1159      C1160   1.419       .  A
C1160      C1161   1.409       .  A
C1160      C1164   1.507       .  S
C1161      H1165   1.084       .  S
C1162      H1172   1.111       .  S
C1162      H1173   1.110       .  S
C1162      H1174   1.105       .  S
C1164      H1175   1.110       .  S
C1164      H1176   1.108       .  S
C1164      H1177   1.110       .  S
C1178      H1188   1.084       .  S
C1178      C1179   1.399       .  A
C1178      C1183   1.405       .  A
C1179      C1184   1.482       .  S
C1179      C1180   1.413       .  A
C1180      C1181   1.405       .  A
C1180      C1185   1.507       .  S
C1181      H1186   1.084       .  S
C1181      C1182   1.401       .  A
C1182      C1183   1.417       .  A
C1183      C1187   1.505       .  S
C1184      C1189   1.412       .  A
C1184      C1193   1.400       .  A
C1185      H1201   1.110       .  S
C1185      H1202   1.110       .  S
C1185      H1203   1.111       .  S
C1187      H1198   1.110       .  S
C1187      H1199   1.110       .  S
C1187      H1200   1.107       .  S
C1189      C1190   1.406       .  A
C1189      C1194   1.505       .  S
C1190      H1195   1.084       .  S
C1190      C1191   1.402       .  A
C1191      C1192   1.414       .  A
C1192      C1193   1.401       .  A
C1192      C1196   1.507       .  S
C1193      H1197   1.084       .  S
C1194      H1204   1.111       .  S
C1194      H1205   1.110       .  S
C1194      H1206   1.110       .  S
C1196      H1207   1.110       .  S
C1196      H1208   1.109       .  S
C1196      H1209   1.110       .  S
C1210      H1220   1.084       .  S
C1210      C1211   1.403       .  A
C1210      C1215   1.407       .  A
C1211      C1216   1.489       .  S
C1211      C1212   1.412       .  A
C1212      C1213   1.405       .  A
C1212      C1217   1.508       .  S
C1213      H1218   1.083       .  S
C1213      C1214   1.406       .  A
C1214      C1215   1.418       .  A
C1215      C1219   1.504       .  S
C1216      C1221   1.412       .  A
C1216      C1225   1.401       .  A
C1217      H1233   1.111       .  S
C1217      H1234   1.107       .  S
C1217      H1235   1.111       .  S
C1219      H1230   1.110       .  S
C1219      H1231   1.110       .  S
C1219      H1232   1.106       .  S
C1221      C1222   1.407       .  A
C1221      C1226   1.508       .  S
C1222      H1227   1.084       .  S
C1222      C1223   1.409       .  A
C1223      C1224   1.421       .  A
C1224      C1225   1.406       .  A
C1224      C1228   1.507       .  S
C1225      H1229   1.084       .  S
C1226      H1236   1.111       .  S
C1226      H1237   1.111       .  S
C1226      H1238   1.108       .  S
C1228      H1239   1.110       .  S
C1228      H1240   1.107       .  S
C1228      H1241   1.111       .  S
C1242      H1252   1.085       .  S
C1242      C1243   1.401       .  A
C1242      C1247   1.401       .  A
C1243      C1248   1.477       .  S
C1243      C1244   1.409       .  A
C1244      C1245   1.404       .  A
C1244      C1249   1.506       .  S
C1245      H1250   1.084       .  S
C1245      C1246   1.406       .  A
C1246      C1247   1.413       .  A
C1247      C1251   1.508       .  S
C1248      C1253   1.409       .  A
C1248      C1257   1.403       .  A
C1249      H1265   1.110       .  S
C1249      H1266   1.109       .  S
C1249      H1267   1.111       .  S
C1251      H1262   1.111       .  S
C1251      H1263   1.110       .  S
C1251      H1264   1.107       .  S
C1253      C1254   1.397       .  A
C1253      C1258   1.508       .  S
C1254      H1259   1.085       .  S
C1254      C1255   1.404       .  A
C1255      C1256   1.414       .  A
C1256      C1257   1.406       .  A
C1256      C1260   1.506       .  S
C1257      H1261   1.084       .  S
C1258      H1268   1.111       .  S
C1258      H1269   1.110       .  S
C1258      H1270   1.109       .  S
C1260      H1271   1.110       .  S
C1260      H1272   1.106       .  S
C1260      H1273   1.110       .  S
C1274      H1284   1.085       .  S
C1274      C1275   1.400       .  A
C1274      C1279   1.400       .  A
C1275      C1280   1.484       .  S
C1275      C1276   1.413       .  A
C1276      C1277   1.407       .  A
C1276      C1281   1.505       .  S
C1277      H1282   1.084       .  S
C1277      C1278   1.403       .  A
C1278      C1279   1.415       .  A
C1279      C1283   1.508       .  S
C1280      C1285   1.410       .  A
C1280      C1289   1.403       .  A
C1281      H1297   1.109       .  S
C1281      H1298   1.110       .  S
C1281      H1299   1.111       .  S
C1283      H1294   1.110       .  S
C1283      H1295   1.110       .  S
C1283      H1296   1.109       .  S
C1285      C1286   1.404       .  A
C1285      C1290   1.506       .  S
C1286      H1291   1.084       .  S
C1286      C1287   1.405       .  A
C1287      C1288   1.415       .  A
C1288      C1289   1.404       .  A
C1288      C1292   1.508       .  S
C1289      H1293   1.085       .  S
C1290      H1300   1.111       .  S
C1290      H1301   1.109       .  S
C1290      H1302   1.111       .  S
C1292      H1303   1.111       .  S
C1292      H1304   1.107       .  S
C1292      H1305   1.110       .  S
C1306      H1316   1.084       .  S
C1306      C1307   1.403       .  A
C1306      C1311   1.406       .  A
C1307      C1312   1.481       .  S
C1307      C1308   1.409       .  A
C1308      C1309   1.399       .  A
C1308      C1313   1.507       .  S
C1309      H1314   1.084       .  S
C1309      C1310   1.403       .  A
C1310      C1311   1.414       .  A
C1311      C1315   1.506       .  S
C1312      C1317   1.414       .  A
C1312      C1321   1.401       .  A
C1313      H1329   1.110       .  S
C1313      H1330   1.110       .  S
C1313      H1331   1.111       .  S
C1315      H1326   1.110       .  S
C1315      H1327   1.110       .  S
C1315      H1328   1.108       .  S
C1317      C1318   1.403       .  A
C1317      C1322   1.507       .  S
C1318      H1323   1.084       .  S
C1318      C1319   1.399       .  A
C1319      C1320   1.414       .  A
C1320      C1321   1.405       .  A
C1320      C1324   1.507       .  S
C1321      H1325   1.084       .  S
C1322      H1332   1.111       .  S
C1322      H1333   1.110       .  S
C1322      H1334   1.110       .  S
C1324      H1335   1.110       .  S
C1324      H1336   1.110       .  S
C1324      H1337   1.111       .  S
C1338      H1348   1.085       .  S
C1338      C1339   1.397       .  A
C1338      C1343   1.396       .  A
C1339      C1344   1.476       .  S
C1339      C1340   1.411       .  A
C1340      C1341   1.406       .  A
C1340      C1345   1.506       .  S
C1341      H1346   1.084       .  S
C1341      C1342   1.404       .  A
C1342      C1343   1.416       .  A
C1343      C1347   1.509       .  S
C1344      C1349   1.412       .  A
C1344      C1353   1.399       .  A
C1345      H1361   1.110       .  S
C1345      H1362   1.109       .  S
C1345      H1363   1.111       .  S
C1347      H1358   1.110       .  S
C1347      H1359   1.110       .  S
C1347      H1360   1.107       .  S
C1349      C1350   1.402       .  A
C1349      C1354   1.508       .  S
C1350      H1355   1.084       .  S
C1350      C1351   1.401       .  A
C1351      C1352   1.418       .  A
C1352      C1353   1.402       .  A
C1352      C1356   1.509       .  S
C1353      H1357   1.085       .  S
C1354      H1364   1.111       .  S
C1354      H1365   1.110       .  S
C1354      H1366   1.109       .  S
C1356      H1367   1.110       .  S
C1356      H1368   1.106       .  S
C1356      H1369   1.111       .  S
C1370      H1380   1.084       .  S
C1370      C1371   1.403       .  A
C1370      C1375   1.406       .  A
C1371      C1376   1.477       .  S
C1371      C1372   1.409       .  A
C1372      C1373   1.396       .  A
C1372      C1377   1.509       .  S
C1373      H1378   1.085       .  S
C1373      C1374   1.403       .  A
C1374      C1375   1.416       .  A
C1375      C1379   1.506       .  S
C1376      C1381   1.408       .  A
C1376      C1385   1.401       .  A
C1377      H1393   1.110       .  S
C1377      H1394   1.109       .  S
C1377      H1395   1.111       .  S
C1379      H1390   1.111       .  S
C1379      H1391   1.110       .  S
C1379      H1392   1.106       .  S
C1381      C1382   1.404       .  A
C1381      C1386   1.506       .  S
C1382      H1387   1.084       .  S
C1382      C1383   1.406       .  A
C1383      C1384   1.415       .  A
C1384      C1385   1.400       .  A
C1384      C1388   1.508       .  S
C1385      H1389   1.085       .  S
C1386      H1396   1.111       .  S
C1386      H1397   1.111       .  S
C1386      H1398   1.109       .  S
C1388      H1399   1.110       .  S
C1388      H1400   1.106       .  S
C1388      H1401   1.111       .  S
C1402      H1412   1.085       .  S
C1402      C1403   1.401       .  A
C1402      C1407   1.401       .  A
C1403      C1408   1.477       .  S
C1403      C1404   1.409       .  A
C1404      C1405   1.403       .  A
C1404      C1409   1.507       .  S
C1405      H1410   1.084       .  S
C1405      C1406   1.406       .  A
C1406      C1407   1.414       .  A
C1407      C1411   1.508       .  S
C1408      C1413   1.409       .  A
C1408      C1417   1.403       .  A
C1409      H1425   1.110       .  S
C1409      H1426   1.109       .  S
C1409      H1427   1.111       .  S
C1411      H1422   1.111       .  S
C1411      H1423   1.110       .  S
C1411      H1424   1.107       .  S
C1413      C1414   1.396       .  A
C1413      C1418   1.509       .  S
C1414      H1419   1.085       .  S
C1414      C1415   1.403       .  A
C1415      C1416   1.415       .  A
C1416      C1417   1.406       .  A
C1416      C1420   1.507       .  S
C1417      H1421   1.084       .  S
C1418      H1428   1.111       .  S
C1418      H1429   1.110       .  S
C1418      H1430   1.108       .  S
C1420      H1431   1.111       .  S
C1420      H1432   1.106       .  S
C1420      H1433   1.110       .  S
C1434      H1444   1.085       .  S
C1434      C1435   1.400       .  A
C1434      C1439   1.404       .  A
C1435      C1440   1.479       .  S
C1435      C1436   1.411       .  A
C1436      C1437   1.402       .  A
C1436      C1441   1.507       .  S
C1437      H1442   1.084       .  S
C1437      C1438   1.402       .  A
C1438      C1439   1.420       .  A
C1439      C1443   1.508       .  S
C1440      C1445   1.412       .  A
C1440      C1449   1.396       .  A
C1441      H1457   1.110       .  S
C1441      H1458   1.109       .  S
C1441      H1459   1.111       .  S
C1443      H1454   1.111       .  S
C1443      H1455   1.110       .  S
C1443      H1456   1.105       .  S
C1445      C1446   1.408       .  A
C1445      C1450   1.505       .  S
C1446      H1451   1.084       .  S
C1446      C1447   1.404       .  A
C1447      C1448   1.418       .  A
C1448      C1449   1.397       .  A
C1448      C1452   1.509       .  S
C1449      H1453   1.085       .  S
C1450      H1460   1.111       .  S
C1450      H1461   1.110       .  S
C1450      H1462   1.110       .  S
C1452      H1463   1.110       .  S
C1452      H1464   1.107       .  S
C1452      H1465   1.110       .  S
C1466      H1476   1.085       .  S
C1466      C1467   1.397       .  A
C1466      C1471   1.396       .  A
C1467      C1472   1.478       .  S
C1467      C1468   1.411       .  A
C1468      C1469   1.407       .  A
C1468      C1473   1.504       .  S
C1469      H1474   1.084       .  S
C1469      C1470   1.404       .  A
C1470      C1471   1.418       .  A
C1471      C1475   1.509       .  S
C1472      C1477   1.412       .  A
C1472      C1481   1.399       .  A
C1473      H1489   1.110       .  S
C1473      H1490   1.110       .  S
C1473      H1491   1.111       .  S
C1475      H1486   1.111       .  S
C1475      H1487   1.110       .  S
C1475      H1488   1.108       .  S
C1477      C1478   1.404       .  A
C1477      C1482   1.507       .  S
C1478      H1483   1.084       .  S
C1478      C1479   1.401       .  A
C1479      C1480   1.417       .  A
C1480      C1481   1.404       .  A
C1480      C1484   1.508       .  S
C1481      H1485   1.084       .  S
C1482      H1492   1.111       .  S
C1482      H1493   1.110       .  S
C1482      H1494   1.110       .  S
C1484      H1495   1.107       .  S
C1484      H1496   1.111       .  S
C1484      H1497   1.111       .  S
