geometry optimzed in LAMMPS
_audit_creation_date              2020-11-30 
_audit_creation_method            'lammps2cif' 
_symmetry_space_group_name_H-M    'P1' 
_symmetry_Int_Tables_number       1 
_symmetry_cell_setting            triclinic 
loop_ 
_symmetry_equiv_pos_as_xyz 
  x,y,z 
_cell_length_a                    41.47175165 
_cell_length_b                    41.497300239157255 
_cell_length_c                    41.27609863203039 
_cell_angle_alpha                 90.29153690599016 
_cell_angle_beta                  90.63458678535852 
_cell_angle_gamma                 90.60301389991986 
loop_ 
_atom_site_label 
_atom_site_type_symbol 
_atom_site_fract_x 
_atom_site_fract_y 
_atom_site_fract_z 
_atom_site_charge 
O1          O  0.34128872  0.24652511  0.05591339    -0.74300
O2          O  0.29789152  0.24652782  0.08936869    -0.53200
C3          C  0.32835662  0.24553014  0.08422119     0.79400
O4          O  0.24573426  0.34189270  0.44653454    -0.58900
O5          O  0.24662265  0.30059323  0.40984010    -0.51900
C6          C  0.24402076  0.33052151  0.41734811     0.71400
O7          O  0.25304902  0.34078658  0.05894352    -0.73500
O8          O  0.25055217  0.29682541  0.09152991    -0.54000
C9          C  0.25168866  0.32742007  0.08718096     0.77400
O10         O  0.34146720  0.24491076  0.44309673    -0.58600
O11         O  0.29940638  0.24907728  0.40750221    -0.51700
C12         C  0.32945778  0.24538097  0.41384870     0.74000
Zr13       Zr  0.31870637  0.24801809  0.49948799     2.54700
O14         O  0.36183316  0.28763845  0.50067844    -0.79200
O15         O  0.35673462  0.20377705  0.50193529    -0.92600
Zr16       Zr  0.25068884  0.31805089  0.50125469     2.64700
O17         O  0.29092985  0.36056283  0.49954577    -0.97600
O18         O  0.20616573  0.35559818  0.50570641    -0.79600
O19         O  0.28585199  0.28216818  0.03172191    -0.83000
O20         O  0.28589057  0.28479907  0.47002265    -2.17700
O21         O  0.24764084  0.15923538  0.44171011    -0.66400
O22         O  0.24637715  0.20183807  0.40689425    -0.50900
C23         C  0.24552537  0.17156182  0.41309927     0.72400
O24         O  0.15669203  0.24593310  0.04955737    -0.59300
O25         O  0.19704867  0.24489961  0.08760573    -0.51200
C26         C  0.16706618  0.24355130  0.07904409     0.74200
O27         O  0.16110666  0.24838966  0.43908604    -0.70700
O28         O  0.20407057  0.25002565  0.40519058    -0.49300
C29         C  0.17380887  0.24825723  0.41056462     0.75600
O30         O  0.24195736  0.15840351  0.05279913    -0.66000
O31         O  0.24189478  0.19956035  0.08961535    -0.53200
C32         C  0.24021529  0.16950137  0.08215093     0.74000
Zr33       Zr  0.24678661  0.18209388  0.99745783     2.77500
O34         O  0.20175545  0.14407159  0.99397532    -0.96700
O35         O  0.28793092  0.14070887  0.99916261    -0.77600
Zr36       Zr  0.18196919  0.25361818  0.99622517     2.70100
O37         O  0.13421483  0.21908538  0.99314180    -0.78800
O38         O  0.15129841  0.30324920  0.99740785    -0.97900
Zr39       Zr  0.24819704  0.24865075  0.05898365     2.21500
Zr40       Zr  0.25109450  0.25052137  0.43885524     2.11100
O41         O  0.21486689  0.21516817  0.46618369    -2.46600
O42         O  0.21771055  0.22103606  0.02252573    -0.78600
O43         O  0.28446928  0.21390466  0.46756094    -0.70800
O44         O  0.21583955  0.28617669  0.03045023    -2.31800
O45         O  0.28275405  0.21370341  0.02966994    -2.28000
O46         O  0.21646857  0.28526414  0.46766589    -0.72600
H47         H  0.29909421  0.29801941  0.45611147     0.79400
H48         H  0.20301690  0.29889329  0.04496570     0.80500
H49         H  0.20170658  0.20240991  0.45142532     0.82700
H50         H  0.29488573  0.19947894  0.04410110     0.80400
H51         H  0.20066167  0.35899092  0.01881788     0.43400
H52         H  0.15175800  0.30902098  0.51549156     0.42400
H53         H  0.14127658  0.19978220  0.98105613     0.42000
H54         H  0.19524116  0.14193016  0.47505596     0.40000
H55         H  0.28085117  0.12091198  0.49132166     0.43100
H56         H  0.34642155  0.18654641  0.98464406     0.37900
H57         H  0.38192642  0.27345420  0.99133236     0.44000
H58         H  0.27894087  0.37997585  0.49287104     0.40400
H59         H  0.18762970  0.14998209  0.01220114     0.45300
H60         H  0.34469583  0.18507367  0.49277363     0.44100
H61         H  0.29693770  0.36462471  0.52248531     0.44200
H62         H  0.16637227  0.32012494  0.98977178     0.44600
N63         N  0.12334225  0.25506644  0.12077668    -0.02500
C64         C  0.10972991  0.23706337  0.14468910     0.00100
C65         C  0.12145945  0.20610562  0.14384189    -0.22800
C66         C  0.14239306  0.20477966  0.11827777    -0.23000
C67         C  0.14383350  0.23513492  0.10495655     0.00000
H68         H  0.11410109  0.18614629  0.15894392     0.13800
H69         H  0.15376811  0.18345443  0.10895028     0.13800
N70         N  0.38048261  0.24348329  0.11852579    -0.02500
C71         C  0.38585495  0.23457142  0.14982878     0.00100
C72         C  0.35734556  0.22541976  0.16432817    -0.22800
C73         C  0.33361463  0.22890024  0.14183539    -0.23000
C74         C  0.34807940  0.23944462  0.11379023     0.00000
H75         H  0.35371558  0.21922808  0.18948442     0.13800
H76         H  0.30813108  0.22492468  0.14587131     0.13800
N77         N  0.12308177  0.25191963  0.37523637    -0.02500
C78         C  0.15373955  0.24239706  0.38119932     0.00100
C79         C  0.16557304  0.22647287  0.35447689    -0.22800
C80         C  0.14097258  0.22426680  0.33228777    -0.23000
C81         C  0.11510535  0.24024901  0.34544537     0.00000
H82         H  0.19007093  0.21884624  0.35074697     0.13800
H83         H  0.14240498  0.21377461  0.30827577     0.13800
N84         N  0.38076878  0.24520723  0.37836410    -0.02500
C85         C  0.34927209  0.23783832  0.38439566     0.00100
C86         C  0.33504721  0.22549515  0.35649744    -0.22800
C87         C  0.35832076  0.22465013  0.33326562    -0.23000
C88         C  0.38668208  0.23633245  0.34709930     0.00000
H89         H  0.30994391  0.21881001  0.35296886     0.13800
H90         H  0.35426443  0.21813869  0.30814224     0.13800
N91         N  0.45079974  0.36304819  0.50508580    -0.35600
N92         N  0.00170721  0.37245945  0.05704658    -0.56200
N93         N  0.04967099  0.36304585  0.50270785    -0.35600
N94         N  0.00131983  0.36220538  0.45184277    -0.56200
C95         C  0.43230781  0.35703310  0.03089901     0.28000
C96         C  0.43183868  0.35491382  0.47941044     0.28000
C97         C  0.06889166  0.36800339  0.03274373     0.28000
C98         C  0.06886823  0.36055213  0.47671508     0.28000
C99         C  0.47535994  0.36251726  0.07351418     0.36600
C100        C  0.02813988  0.37032068  0.07623158     0.36600
C101        C  0.47312264  0.35504083  0.43550638     0.36600
C102        C  0.02707161  0.35446997  0.43369742     0.36600
C103        C  0.40130829  0.34771357  0.02201298    -0.20900
C104        C  0.40136538  0.34681352  0.48996888    -0.20900
C105        C  0.10087875  0.36837734  0.02305773    -0.20900
C106        C  0.10087532  0.36284636  0.48629202    -0.20900
C107        C  0.48592754  0.35911897  0.10525175    -0.22000
C108        C  0.01916369  0.36620013  0.10816674    -0.22000
C109        C  0.48186399  0.34771378  0.40415087    -0.22000
C110        C  0.01715092  0.34538660  0.40287809    -0.22000
C111        C  0.44511883  0.35130828  0.06218208    -0.17300
C112        C  0.44246960  0.34744148  0.44793148    -0.17300
C113        C  0.05847317  0.34971686  0.44606667    -0.17300
C114        C  0.05893633  0.36239487  0.06466398    -0.17300
H115        H  0.38231456  0.33933099  0.03775568     0.15600
H116        H  0.38102825  0.33909377  0.47513676     0.15600
H117        H  0.12222597  0.36985362  0.03827304     0.15600
H118        H  0.12184315  0.36026759  0.47114675     0.15600
H119        H  0.47146564  0.35340045  0.12610327     0.13900
H120        H  0.03491058  0.36183777  0.12874543     0.13900
H121        H  0.46607173  0.34069562  0.38427690     0.13900
H122        H  0.03163111  0.33723298  0.38294766     0.13900
H123        H  0.47476143  0.36969718  0.50428233     0.27100
H124        H  0.02579660  0.35567079  0.50325681     0.27100
O125        O  0.05439197  0.24748878  0.15644056    -0.74300
O126        O  0.09176575  0.24948679  0.19741175    -0.53200
C127        C  0.08372603  0.24659879  0.16730969     0.79400
O128        O  0.44308513  0.33845475  0.24873772    -0.58900
O129        O  0.40930833  0.29475514  0.24730987    -0.51900
C130        C  0.41467078  0.32545399  0.24737960     0.71400
O131        O  0.05236665  0.34461724  0.24855542    -0.73500
O132        O  0.08936465  0.30459530  0.24450875    -0.54000
C133        C  0.08145741  0.33451440  0.24490948     0.77400
O134        O  0.44362466  0.24141113  0.15728736    -0.58600
O135        O  0.40947021  0.24385568  0.20004001    -0.51700
C136        C  0.41516904  0.24071320  0.16983939     0.74000
Zr137      Zr  0.49957639  0.24929446  0.17849323     2.54700
O138        O  0.49882867  0.29676804  0.14473451    -0.79200
O139        O  0.49682261  0.21386303  0.13130161    -0.92600
Zr140      Zr  0.49866426  0.31708287  0.24785397     2.64700
O141        O  0.99696507  0.35930168  0.20907969    -0.97600
O142        O  0.50076074  0.35681525  0.29146792    -0.79600
O143        O  0.02991092  0.28738692  0.21382382    -0.83000
O144        O  0.46800465  0.28243446  0.21268510    -2.17700
O145        O  0.45142321  0.15505675  0.23756830    -0.66400
O146        O  0.41359613  0.19466566  0.23926288    -0.50900
C147        C  0.42213309  0.16516698  0.23540207     0.72400
O148        O  0.05748512  0.24502563  0.33821796    -0.59300
O149        O  0.09208965  0.25169214  0.29598369    -0.51200
C150        C  0.08603918  0.24684368  0.32587512     0.74200
O151        O  0.44526943  0.24440836  0.33923839    -0.70700
O152        O  0.41034845  0.24175803  0.29632574    -0.49300
C153        C  0.41632251  0.24179278  0.32686542     0.75600
O154        O  0.06120530  0.16132339  0.24731335    -0.66000
O155        O  0.09426111  0.20554718  0.24638902    -0.53200
C156        C  0.08946051  0.17485479  0.24619005     0.74000
Zr157      Zr  0.00459365  0.18116311  0.24765864     2.77500
O158        O  0.00290266  0.14415457  0.29302164    -0.96700
O159        O  0.00974456  0.13725314  0.20887396    -0.77600
Zr160      Zr  0.00094156  0.24777331  0.31736238     2.70100
O161        O  0.99958611  0.20030966  0.35181221    -0.78800
O162        O  0.00221125  0.28443534  0.36339672    -0.97900
Zr163      Zr  0.06112021  0.25321242  0.24732922     2.21500
Zr164      Zr  0.44146337  0.24585434  0.24792390     2.11100
O165        O  0.47259621  0.21161181  0.28189831    -2.46600
O166        O  0.03403176  0.21658551  0.28249551    -0.78600
O167        O  0.47211048  0.21277898  0.21274012    -0.70800
O168        O  0.03097012  0.28503176  0.28472102    -2.31800
O169        O  0.03187806  0.21728671  0.21273105    -2.28000
O170        O  0.46934806  0.28223205  0.28309169    -0.72600
H171        H  0.45284454  0.29456307  0.19980635     0.79400
H172        H  0.04496827  0.29830124  0.29817803     0.80500
H173        H  0.45886022  0.19757204  0.29441513     0.82700
H174        H  0.04604261  0.20463955  0.19945209     0.80400
H175        H  0.99085217  0.37617852  0.28647468     0.43400
H176        H  0.49054977  0.30934806  0.34343280     0.42400
H177        H  0.01349326  0.20602478  0.37067038     0.42000
H178        H  0.48394522  0.13063512  0.28862414     0.40000
H179        H  0.50290307  0.14550199  0.18688871     0.43100
H180        H  0.01366386  0.20024217  0.13562494     0.37900
H181        H  0.97499907  0.30097722  0.14037032     0.44000
H182        H  0.51637428  0.34943628  0.18970149     0.40400
H183        H  0.02000765  0.12834535  0.28848958     0.45300
H184        H  0.50674761  0.22644272  0.11361693     0.44100
H185        H  0.47864960  0.34885403  0.18993421     0.44200
H186        H  0.02015900  0.27681332  0.37729829     0.44600
N187        N  0.25484638  0.37785565  0.12512030    -0.02500
C188        C  0.24393200  0.38282138  0.15562245     0.00100
C189        C  0.23071134  0.35486060  0.16787137    -0.22800
C190        C  0.23280229  0.33209013  0.14412208    -0.23000
C191        C  0.24730249  0.34647045  0.11771316     0.00000
H192        H  0.22146641  0.35101648  0.19196479     0.13800
H193        H  0.22452436  0.30734450  0.14604048     0.13800
N194        N  0.24807475  0.11915643  0.11750394    -0.02500
C195        C  0.23335192  0.14730294  0.10971770     0.00100
C196        C  0.21099544  0.15437168  0.13308827    -0.22800
C197        C  0.21034068  0.12897687  0.15422480    -0.23000
C198        C  0.23375266  0.10776905  0.14479333     0.00000
H199        H  0.19794065  0.17644716  0.13571914     0.13800
H200        H  0.19514273  0.12657677  0.17498092     0.13800
N201        N  0.25771930  0.12600117  0.37403336    -0.03700
C202        C  0.23923594  0.15042243  0.38487281     0.00100
C203        C  0.21285045  0.15423291  0.36472669    -0.22800
C204        C  0.21529422  0.13193357  0.34028215    -0.23000
C205        C  0.24270066  0.11446655  0.34681317     0.00000
H206        H  0.19275347  0.16982662  0.36879358     0.13800
H207        H  0.19796395  0.12765649  0.32087951     0.13800
N208        N  0.24752618  0.38185761  0.38334376    -0.02500
C209        C  0.23472484  0.39062929  0.35420737     0.00100
C210        C  0.21487532  0.36602200  0.34260239    -0.22800
C211        C  0.21577239  0.34164466  0.36489233    -0.23000
C212        C  0.23573519  0.35191705  0.38983883     0.00000
H213        H  0.20234650  0.36517314  0.31946660     0.13800
H214        H  0.20414643  0.31827121  0.36265609     0.13800
N215        N  0.37525315  0.50826506  0.05927932    -0.35600
N216        N  0.36487866  0.45511535  0.51422896    -0.56200
N217        N  0.35775543  0.50233121  0.46403870    -0.35600
N218        N  0.37122627  0.05605160  0.50647797    -0.56200
C219        C  0.36618211  0.48411527  0.07930496     0.28000
C220        C  0.37180675  0.03779268  0.07849022     0.28000
C221        C  0.35324836  0.47522203  0.44654918     0.28000
C222        C  0.35697014  0.02779150  0.44241666     0.28000
C223        C  0.36166146  0.43935250  0.03880213     0.36600
C224        C  0.35488639  0.43522539  0.49015878     0.36600
C225        C  0.37041110  0.07789316  0.03310084     0.36600
C226        C  0.36124221  0.07342692  0.48076120     0.36600
C227        C  0.36210644  0.49624021  0.11028094    -0.20900
C228        C  0.36571503  0.03122221  0.11076659    -0.20900
C229        C  0.35219646  0.48228377  0.41384053    -0.20900
C230        C  0.35362998  0.01628670  0.41109769    -0.20900
C231        C  0.35409122  0.40763730  0.03089774    -0.22000
C232        C  0.35067727  0.40445950  0.50151305    -0.22000
C233        C  0.36327185  0.10877460  0.02260622    -0.22000
C234        C  0.35730140  0.10531374  0.48960687    -0.22000
C235        C  0.35595095  0.45291980  0.06954472    -0.17300
C236        C  0.36265512  0.06725408  0.06440231    -0.17300
C237        C  0.35074755  0.05969858  0.45116790    -0.17300
C238        C  0.34413056  0.44561798  0.45971133    -0.17300
H239        H  0.35359667  0.48365302  0.13136327     0.15600
H240        H  0.36000700  0.04845046  0.12959857     0.15600
H241        H  0.34658672  0.46596611  0.39406646     0.15600
H242        H  0.35032578  0.03054129  0.38956321     0.15600
H243        H  0.34850840  0.38829621  0.04744269     0.13900
H244        H  0.34293115  0.38362265  0.48769632     0.13900
H245        H  0.35873840  0.12980963  0.03736275     0.13900
H246        H  0.34853153  0.12499413  0.47509168     0.13900
H247        H  0.37846853  0.50681509  0.03451216     0.27100
H248        H  0.35260575  0.50457255  0.48848270     0.27100
N249        N  0.11896255  0.38450332  0.25123265    -0.02500
C250        C  0.10772781  0.35738983  0.23579789     0.00100
C251        C  0.12765362  0.35027887  0.21021931    -0.22800
C252        C  0.15167966  0.37330120  0.20994236    -0.23000
C253        C  0.14609090  0.39380484  0.23555952     0.00000
H254        H  0.12515584  0.32987209  0.19396556     0.13800
H255        H  0.17123484  0.37491647  0.19299727     0.13800
N256        N  0.38602178  0.11591874  0.24226021    -0.02500
C257        C  0.39607833  0.14221767  0.22566037     0.00100
C258        C  0.37472163  0.14817029  0.20057636    -0.22800
C259        C  0.35059468  0.12523705  0.20243603    -0.23000
C260        C  0.35791714  0.10586587  0.22834289     0.00000
H261        H  0.37639037  0.16725466  0.18306591     0.13800
H262        H  0.32957363  0.12266324  0.18700993     0.13800
N263        N  0.12529351  0.12441208  0.25190446    -0.02500
C264        C  0.11923272  0.15515078  0.24177828     0.00100
C265        C  0.14661423  0.16843866  0.22831866    -0.22800
C266        C  0.17016285  0.14575207  0.23034494    -0.23000
C267        C  0.15665051  0.11842047  0.24391457     0.00000
H268        H  0.14960392  0.19267637  0.21916093     0.13800
H269        H  0.19505163  0.14937599  0.22359447     0.13800
N270        N  0.37967733  0.37653963  0.25344971    -0.02500
C271        C  0.34897262  0.38366435  0.24349870     0.00100
C272        C  0.33617648  0.35805545  0.22584385    -0.22800
C273        C  0.35904615  0.33448372  0.22520674    -0.23000
C274        C  0.38554336  0.34597364  0.24247527     0.00000
H275        H  0.31246263  0.35657082  0.21465539     0.13800
H276        H  0.35649831  0.31119405  0.21345098     0.13800
N277        N  0.01467931  0.46233008  0.35910417    -0.35600
N278        N  0.45719768  0.50582574  0.36414241    -0.56200
N279        N  0.00442555  0.06005004  0.37198593    -0.35600
N280        N  0.06260546  0.51221827  0.37487064    -0.56200
C281        C  0.48546664  0.44118777  0.35476233     0.28000
C282        C  0.04128019  0.44459671  0.36440089     0.28000
C283        C  0.48095012  0.07859905  0.36251799     0.28000
C284        C  0.03040839  0.07959488  0.36734045     0.28000
C285        C  0.44027780  0.47972123  0.35389000     0.36600
C286        C  0.43834481  0.03513401  0.36076643     0.36600
C287        C  0.08281670  0.48792179  0.36731219     0.36600
C288        C  0.07443192  0.03856948  0.36903556     0.36600
C289        C  0.49654730  0.40992914  0.35402675    -0.20900
C290        C  0.03317105  0.41213682  0.36183523    -0.20900
C291        C  0.49018871  0.11009242  0.35637083    -0.20900
C292        C  0.02005906  0.11050253  0.36048383    -0.20900
C293        C  0.40878234  0.48783173  0.34674228    -0.22000
C294        C  0.40695397  0.02544163  0.35329807    -0.22000
C295        C  0.11357819  0.49989389  0.36270478    -0.22000
C296        C  0.10643446  0.03044354  0.36441534    -0.22000
C297        C  0.45408014  0.45005030  0.34570160    -0.17300
C298        C  0.07282484  0.45623595  0.35911343    -0.17300
C299        C  0.06243097  0.06945741  0.36171645    -0.17300
C300        C  0.45039847  0.06593005  0.35321083    -0.17300
H301        H  0.48282602  0.38833973  0.34816876     0.15600
H302        H  0.04969523  0.39214556  0.36180470     0.15600
H303        H  0.47484288  0.12945630  0.34826640     0.15600
H304        H  0.03485152  0.13121469  0.35448376     0.15600
H305        H  0.38977103  0.47229949  0.33730217     0.13900
H306        H  0.38672169  0.04066508  0.34745502     0.13900
H307        H  0.13453045  0.48681711  0.35517700     0.13900
H308        H  0.12664341  0.04680720  0.36123923     0.13900
H309        H  0.01490528  0.48647749  0.35281102     0.27100
H310        H  0.00471212  0.03557563  0.37667401     0.27100
O311        O  0.24947829  0.44055811  0.16250627    -0.74300
O312        O  0.24803576  0.40707219  0.20618087    -0.53200
C313        C  0.24789234  0.41229341  0.17569214     0.79400
O314        O  0.34610098  0.05126077  0.24278798    -0.58900
O315        O  0.30580454  0.08835240  0.24076758    -0.51900
C316        C  0.33558697  0.08019706  0.23915780     0.71400
O317        O  0.34268291  0.44147106  0.25021913    -0.73500
O318        O  0.29863607  0.40811864  0.25122495    -0.54000
C319        C  0.32932605  0.41315910  0.24965281     0.77400
O320        O  0.24483813  0.05160305  0.15554177    -0.58600
O321        O  0.24799057  0.08870528  0.19651389    -0.51700
C322        C  0.24398528  0.08087109  0.16648627     0.74000
Zr323      Zr  0.25022426  0.99736806  0.18037102     2.54700
O324        O  0.29156846  0.99696553  0.13925387    -0.79200
O325        O  0.20743556  0.99364468  0.13955748    -0.92600
Zr326      Zr  0.32078190  0.99746552  0.24833860     2.64700
O327        O  0.35749093  0.99244901  0.20311582    -0.97600
O328        O  0.36527510  0.00021784  0.28699905    -0.79600
O329        O  0.28487028  0.46686677  0.21645275    -0.83000
O330        O  0.28716599  0.02802820  0.21281664    -2.17700
O331        O  0.16281824  0.05997243  0.24963783    -0.66400
O332        O  0.20697707  0.09309242  0.24793387    -0.50900
C333        C  0.17625739  0.08833513  0.24832060     0.72400
O334        O  0.24708223  0.44734696  0.34463043    -0.59300
O335        O  0.24482667  0.41116797  0.30293246    -0.51200
C336        C  0.24360312  0.41837822  0.33314343     0.74200
O337        O  0.25100285  0.05804355  0.33878959    -0.70700
O338        O  0.25514160  0.09279118  0.29619970    -0.49300
C339        C  0.25160847  0.08661141  0.32644055     0.75600
O340        O  0.15864768  0.44923848  0.24733031    -0.66000
O341        O  0.19875985  0.41184191  0.24728475    -0.53200
C342        C  0.16898196  0.42002954  0.24494593     0.74000
Zr343      Zr  0.18385323  0.50353605  0.25152692     2.77500
O344        O  0.14483059  0.50364378  0.29496111    -0.96700
O345        O  0.14245339  0.50633402  0.20941580    -0.77600
Zr346      Zr  0.25465420  0.50169485  0.31985574     2.70100
O347        O  0.21890720  0.50449713  0.36614162    -0.78800
O348        O  0.30199535  0.50276278  0.35496044    -0.97900
Zr349      Zr  0.24990658  0.44035430  0.25312840     2.21500
Zr350      Zr  0.25490014  0.06025232  0.24745318     2.11100
O351        O  0.21999674  0.03260507  0.28374533    -2.46600
O352        O  0.21689579  0.47218202  0.28710061    -0.78600
O353        O  0.21806284  0.03059580  0.21415969    -0.70800
O354        O  0.28751726  0.46889379  0.28650046    -2.31800
O355        O  0.21609021  0.47049359  0.21768170    -2.28000
O356        O  0.28923989  0.03067684  0.28300462    -0.72600
H357        H  0.30000527  0.04122078  0.19858070     0.79400
H358        H  0.29996151  0.45419400  0.29956614     0.80500
H359        H  0.20758198  0.04754040  0.29641345     0.82700
H360        H  0.20241463  0.45662316  0.20452136     0.80400
H361        H  0.38583840  0.50406540  0.27303369     0.43400
H362        H  0.32005808  0.99898884  0.33840893     0.42400
H363        H  0.19717457  0.50004202  0.35688511     0.42000
H364        H  0.12604004  0.01375811  0.28639876     0.40000
H365        H  0.15183729  0.00524649  0.18871524     0.43100
H366        H  0.21551777  0.50405800  0.12260247     0.37900
H367        H  0.30115365  0.51920942  0.14050373     0.44000
H368        H  0.34780875  0.97488581  0.18982735     0.40400
H369        H  0.12367293  0.50048199  0.28399552     0.45300
H370        H  0.21879643  0.99521025  0.11864475     0.44100
H371        H  0.35411084  0.01212415  0.19010240     0.44200
H372        H  0.31384526  0.52239079  0.34820055     0.44600
C373        C  0.39310089  0.39097166  0.30988439    -0.11300
C374        C  0.39895162  0.39441607  0.27659264     0.05700
C375        C  0.42370665  0.41538392  0.26645617    -0.06600
C376        C  0.44202341  0.43258004  0.28943836    -0.07300
C377        C  0.43627228  0.42893185  0.32253108    -0.01900
C378        C  0.41204760  0.40780765  0.33287078     0.04900
N379        N  0.40610337  0.40467155  0.36665332     0.67400
H380        H  0.37389076  0.37519757  0.31775249     0.16300
H381        H  0.46057361  0.44922860  0.28144008     0.16100
N382        N  0.43029121  0.41988035  0.23294596     0.75200
O383        O  0.38311246  0.42015873  0.37855686    -0.38300
O384        O  0.42900875  0.39646887  0.38509089    -0.38200
O385        O  0.42084659  0.44531592  0.21936647    -0.38900
O386        O  0.45306643  0.40440449  0.22048598    -0.39000
C387        C  0.07201173  0.07313699  0.30319036    -0.11300
C388        C  0.07893336  0.08554997  0.33425314     0.05700
C389        C  0.10161848  0.11083220  0.33782108    -0.06600
C390        C  0.11696360  0.12293138  0.31031908    -0.07300
C391        C  0.10972252  0.11049734  0.27932797    -0.01900
C392        C  0.08678945  0.08568710  0.27577386     0.04900
N393        N  0.07796558  0.07323130  0.24460088     0.67400
H394        H  0.05515775  0.05318863  0.30036033     0.16300
H395        H  0.13449090  0.14234898  0.31296704     0.16100
N396        N  0.10950654  0.12431607  0.36882922     0.75200
O397        O  0.08876145  0.04627976  0.23589910    -0.38300
O398        O  0.05311586  0.08396226  0.23064503    -0.38200
O399        O  0.13552602  0.11628476  0.38254822    -0.38900
O400        O  0.09621044  0.15017596  0.37735796    -0.39000
C401        C  0.40757964  0.09982967  0.32851419    -0.11300
C402        C  0.43484871  0.08078495  0.32465823     0.05700
C403        C  0.44507306  0.07232197  0.29316193    -0.06600
C404        C  0.42849477  0.08386074  0.26619913    -0.07300
C405        C  0.40138570  0.10287354  0.27017959    -0.01900
C406        C  0.39057131  0.11042418  0.30130969     0.04900
N407        N  0.36332363  0.13038002  0.30536235     0.67400
H408        H  0.39919170  0.10579870  0.35256278     0.16300
H409        H  0.43665323  0.07797968  0.24204862     0.16100
N410        N  0.47199015  0.05175397  0.28817836     0.75200
O411        O  0.33641471  0.11806388  0.31256078    -0.38300
O412        O  0.36758317  0.16037623  0.30750496    -0.38200
O413        O  0.46694233  0.02229401  0.28207401    -0.38900
O414        O  0.49862659  0.06426836  0.28047141    -0.39000
C415        C  0.12458402  0.40027468  0.30824990    -0.11300
C416        C  0.10668891  0.40053362  0.27914667     0.05700
C417        C  0.08079675  0.42169697  0.27578208    -0.06600
C418        C  0.07235249  0.44127943  0.30164834    -0.07300
C419        C  0.08881806  0.43984182  0.33156519    -0.01900
C420        C  0.11592308  0.41975981  0.33459156     0.04900
N421        N  0.13583760  0.42007288  0.36308863     0.67400
H422        H  0.14580645  0.38540203  0.31009036     0.16300
H423        H  0.05191274  0.45714832  0.29874133     0.16100
N424        N  0.06366083  0.42459800  0.24576522     0.75200
O425        O  0.13136771  0.39895226  0.38444691    -0.38300
O426        O  0.16281440  0.43438385  0.36222676    -0.38200
O427        O  0.03532534  0.41338416  0.24350214    -0.38900
O428        O  0.07281118  0.44555064  0.22571950    -0.39000
C429        C  0.26286570  0.42249591  0.42317674    -0.11300
C430        C  0.27194185  0.39838155  0.40174206     0.05700
C431        C  0.30392124  0.38765440  0.40181945    -0.06600
C432        C  0.32695005  0.40228912  0.42194804    -0.07300
C433        C  0.31832574  0.42729533  0.44257868    -0.01900
C434        C  0.28542361  0.43638000  0.44469124     0.04900
N435        N  0.27412721  0.45766062  0.46965006     0.67400
H436        H  0.23767244  0.42899947  0.42426836     0.16300
H437        H  0.35155655  0.39385474  0.42186080     0.16100
N438        N  0.31298094  0.36083198  0.38265439     0.75200
O439        O  0.24694821  0.47085632  0.46676992    -0.38300
O440        O  0.28776584  0.45805577  0.49704251    -0.38200
O441        O  0.32583340  0.36573848  0.35556068    -0.38900
O442        O  0.31623305  0.33392196  0.39629329    -0.39000
C443        C  0.27341917  0.08073566  0.40671038    -0.11300
C444        C  0.28183097  0.10985653  0.39260421     0.05700
C445        C  0.31276608  0.12308907  0.39846724    -0.06600
C446        C  0.33560262  0.10571882  0.41597537    -0.07300
C447        C  0.32692830  0.07691821  0.43083206    -0.01900
C448        C  0.29521803  0.06457405  0.42629165     0.04900
N449        N  0.28435077  0.03576945  0.44142957     0.67400
H450        H  0.24923037  0.07105400  0.40333652     0.16300
H451        H  0.35971915  0.11558587  0.41936777     0.16100
N452        N  0.32073965  0.15511778  0.38972757     0.75200
O453        O  0.26776762  0.03834139  0.46671364    -0.38300
O454        O  0.28050398  0.01105119  0.42386408    -0.38200
O455        O  0.31682088  0.17665650  0.41090970    -0.38900
O456        O  0.34262802  0.15909927  0.36920993    -0.39000
C457        C  0.33443615  0.11044805  0.09444554    -0.11300
C458        C  0.33302342  0.08113778  0.07801486     0.05700
C459        C  0.30305923  0.06492151  0.07397568    -0.06600
C460        C  0.27544231  0.07747367  0.08771391    -0.07300
C461        C  0.27680222  0.10696444  0.10365802    -0.01900
C462        C  0.30628719  0.12394362  0.10623969     0.04900
N463        N  0.30757517  0.15608790  0.11792130     0.67400
H464        H  0.35716770  0.12339408  0.09700749     0.16300
H465        H  0.25261517  0.06471401  0.08513634     0.16100
N466        N  0.30012158  0.03602522  0.05539920     0.75200
O467        O  0.31532370  0.16134556  0.14703961    -0.38300
O468        O  0.31120103  0.17819683  0.09750919    -0.38200
O469        O  0.29342288  0.01017540  0.06978779    -0.38900
O470        O  0.29395219  0.03812554  0.02555132    -0.39000
C471        C  0.31021922  0.39902668  0.12789267    -0.11300
C472        C  0.28017705  0.39713262  0.11165656     0.05700
C473        C  0.27376299  0.41847695  0.08644465    -0.06600
C474        C  0.29878170  0.43723089  0.07417498    -0.07300
C475        C  0.32983449  0.43691947  0.08819254    -0.01900
C476        C  0.33493427  0.41984436  0.11723717     0.04900
N477        N  0.36457824  0.42278890  0.13576761     0.67400
H478        H  0.31408212  0.38441656  0.14923328     0.16300
H479        H  0.29414268  0.45207588  0.05324781     0.16100
N480        N  0.24153808  0.42344867  0.07520822     0.75200
O481        O  0.36512624  0.41533541  0.16538309    -0.38300
O482        O  0.39069900  0.43093959  0.12248473    -0.38200
O483        O  0.22668582  0.44821740  0.08430929    -0.38900
O484        O  0.23057688  0.40719092  0.05164861    -0.39000
C485        C  0.40309792  0.32779230  0.40542720    -0.11300
C486        C  0.42464817  0.32110803  0.43076874     0.05700
C487        C  0.43183598  0.28872161  0.43806996    -0.06600
C488        C  0.41704481  0.26379446  0.42075374    -0.07300
C489        C  0.39699264  0.27073325  0.39475857    -0.01900
C490        C  0.39078797  0.30279088  0.38611006     0.04900
N491        N  0.37511523  0.30992780  0.35596033     0.67400
H492        H  0.39644921  0.35214215  0.40008732     0.16300
H493        H  0.42205015  0.23894851  0.42679507     0.16100
N494        N  0.45624798  0.28070951  0.46099065     0.75200
O495        O  0.39232943  0.31763786  0.33216541    -0.38300
O496        O  0.34648163  0.30059313  0.35072305    -0.38200
O497        O  0.44801273  0.27087168  0.48855804    -0.38900
O498        O  0.48326405  0.27266036  0.45015105    -0.39000
C499        C  0.09458758  0.26983699  0.42281975    -0.11300
C500        C  0.10707511  0.27683586  0.39252805     0.05700
C501        C  0.10557634  0.30855220  0.38046675    -0.06600
C502        C  0.09167079  0.33272485  0.39917195    -0.07300
C503        C  0.07866482  0.32563456  0.42942322    -0.01900
C504        C  0.08054370  0.29383625  0.44141935     0.04900
N505        N  0.06683830  0.28492893  0.47166337     0.67400
H506        H  0.09567842  0.24543374  0.43196467     0.16300
H507        H  0.08917225  0.35663954  0.38929842     0.16100
N508        N  0.11729482  0.31646028  0.34908034     0.75200
O509        O  0.08458678  0.28547052  0.49664418    -0.38300
O510        O  0.04243080  0.26662482  0.47134646    -0.38200
O511        O  0.09730344  0.32223215  0.32665893    -0.38900
O512        O  0.14584996  0.32664889  0.34643427    -0.39000
C513        C  0.43570648  0.29230160  0.06636498    -0.11300
C514        C  0.43073928  0.32323100  0.07927618     0.05700
C515        C  0.40997816  0.32672698  0.10546390    -0.06600
C516        C  0.39398126  0.30008310  0.11788963    -0.07300
C517        C  0.39814966  0.26952321  0.10453149    -0.01900
C518        C  0.41960217  0.26536622  0.07881651     0.04900
N519        N  0.42489669  0.23442302  0.06478958     0.67400
H520        H  0.45153773  0.28932610  0.04594668     0.16300
H521        H  0.37706469  0.30332559  0.13745828     0.16100
N522        N  0.40032790  0.35747615  0.11597089     0.75200
O523        O  0.44950813  0.21889538  0.07338123    -0.38300
O524        O  0.41126992  0.22746004  0.03816077    -0.38200
O525        O  0.40961109  0.36736503  0.14352772    -0.38900
O526        O  0.37430804  0.36760956  0.10408448    -0.39000
C527        C  0.10609992  0.33977053  0.09474916    -0.11300
C528        C  0.07538328  0.33545213  0.08100496     0.05700
C529        C  0.06147458  0.30421547  0.07961666    -0.06600
C530        C  0.07789375  0.27838233  0.09276748    -0.07300
C531        C  0.10838103  0.28262487  0.10673300    -0.01900
C532        C  0.12305508  0.31333964  0.10677375     0.04900
N533        N  0.15559774  0.31786879  0.11706268     0.67400
H534        H  0.11731276  0.36347046  0.09521447     0.16300
H535        H  0.06695377  0.25455721  0.09179912     0.16100
N536        N  0.03072007  0.29816203  0.06477289     0.75200
O537        O  0.16110924  0.32838770  0.14526933    -0.38300
O538        O  0.17673991  0.32179551  0.09569622    -0.38200
O539        O  0.02946452  0.28765503  0.03609666    -0.38900
O540        O  0.00681052  0.29348970  0.08273570    -0.39000
O541        O  0.34102074  0.24679652  0.55555836    -0.74300
O542        O  0.29763407  0.24673768  0.58899603    -0.53200
C543        C  0.32806341  0.24572833  0.58389068     0.79400
O544        O  0.24781226  0.34369201  0.94748200    -0.58900
O545        O  0.24845663  0.30266586  0.91047519    -0.51900
C546        C  0.24576384  0.33254908  0.91814144     0.71400
O547        O  0.25249120  0.34015614  0.55766057    -0.73500
O548        O  0.24952310  0.29650102  0.59057133    -0.54000
C549        C  0.25083776  0.32704934  0.58596420     0.77400
O550        O  0.34180089  0.24397285  0.94363321    -0.58600
O551        O  0.30002159  0.24979837  0.90795084    -0.51700
C552        C  0.32988146  0.24503811  0.91437437     0.74000
Zr553      Zr  0.31909396  0.24737723  0.99995250     2.54700
O554        O  0.36406217  0.28508589  0.00175597    -0.79200
O555        O  0.35556051  0.20176224  0.00093674    -0.92600
Zr556      Zr  0.25355454  0.31920873  0.00218960     2.64700
O557        O  0.30079684  0.35348384  0.00552753    -0.97600
O558        O  0.21696060  0.36458328  0.00236326    -0.79600
O559        O  0.28481324  0.28258492  0.53091170    -0.83000
O560        O  0.28775489  0.28545471  0.97045214    -2.17700
O561        O  0.24735029  0.16089468  0.94133463    -0.66400
O562        O  0.24734447  0.20388062  0.90698706    -0.50900
C563        C  0.24622093  0.17351806  0.91278774     0.72400
O564        O  0.15656921  0.24434375  0.54972921    -0.59300
O565        O  0.19739521  0.24327823  0.58729768    -0.51200
C566        C  0.16733795  0.24196946  0.57907578     0.74200
O567        O  0.16176193  0.25271331  0.93908847    -0.70700
O568        O  0.20492362  0.25328596  0.90550032    -0.49300
C569        C  0.17458032  0.25230946  0.91060496     0.75600
O570        O  0.24388333  0.15751047  0.55317921    -0.66000
O571        O  0.24319244  0.19913947  0.58942863    -0.53200
C572        C  0.24199477  0.16898378  0.58236263     0.74000
Zr573      Zr  0.24826353  0.18074876  0.49768938     2.77500
O574        O  0.20507081  0.14051093  0.49696815    -0.96700
O575        O  0.29086536  0.14096221  0.50004021    -0.77600
Zr576      Zr  0.18142825  0.25024307  0.49600924     2.70100
O577        O  0.13647445  0.21204005  0.49472305    -0.78800
O578        O  0.14822598  0.29814843  0.49433264    -0.97900
Zr579      Zr  0.24822126  0.24802914  0.55844421     2.21500
Zr580      Zr  0.25183011  0.25237795  0.93927668     2.11100
O581        O  0.21455209  0.21780365  0.96615186    -2.46600
O582        O  0.21841452  0.21923360  0.52241159    -0.78600
O583        O  0.28389871  0.21459549  0.96781122    -0.70800
O584        O  0.21444129  0.28397381  0.52981422    -2.31800
O585        O  0.28343220  0.21363441  0.52943079    -2.28000
O586        O  0.21819856  0.28780339  0.96844032    -0.72600
H587        H  0.30135264  0.29837536  0.95664368     0.79400
H588        H  0.20135827  0.29643311  0.54432085     0.80500
H589        H  0.20125481  0.20549179  0.95113122     0.82700
H590        H  0.29603017  0.19984780  0.54391873     0.80400
H591        H  0.21140366  0.37329741  0.49059523     0.43400
H592        H  0.14833507  0.30810648  0.02069538     0.42400
H593        H  0.14630341  0.19112153  0.50032329     0.42000
H594        H  0.21106678  0.12310791  0.00026297     0.40000
H595        H  0.27685135  0.12133617  0.00771105     0.43100
H596        H  0.37318527  0.20892715  0.48549980     0.37900
H597        H  0.38059685  0.27614657  0.49180529     0.44000
H598        H  0.29534524  0.36960089  0.02228267     0.40400
H599        H  0.21633465  0.11958556  0.49699920     0.45300
H600        H  0.35171678  0.19113235  0.02198510     0.44100
H601        H  0.31737841  0.33991983  0.01600066     0.44200
H602        H  0.15868687  0.31244100  0.47836439     0.44600
N603        N  0.12319401  0.25359441  0.62016148    -0.02500
C604        C  0.10959773  0.23586029  0.64424887     0.00100
C605        C  0.12232531  0.20530681  0.64466290    -0.22800
C606        C  0.14379000  0.20387062  0.61958079    -0.23000
C607        C  0.14448230  0.23381878  0.60531208     0.00000
H608        H  0.11538459  0.18564297  0.66033571     0.13800
H609        H  0.15593404  0.18262806  0.61113717     0.13800
N610        N  0.37984946  0.24333252  0.61875756    -0.02500
C611        C  0.38492729  0.23391854  0.64993926     0.00100
C612        C  0.35629648  0.22456347  0.66404335    -0.22800
C613        C  0.33278066  0.22838900  0.64134694    -0.23000
C614        C  0.34751716  0.23941130  0.61359722     0.00000
H615        H  0.35246156  0.21783901  0.68902573     0.13800
H616        H  0.30728090  0.22408579  0.64500208     0.13800
N617        N  0.12335789  0.25495570  0.87534038    -0.02500
C618        C  0.15466213  0.24714354  0.88083371     0.00100
C619        C  0.16741987  0.23350440  0.85329367    -0.22800
C620        C  0.14302246  0.23100618  0.83095877    -0.23000
C621        C  0.11612986  0.24457566  0.84480573     0.00000
H622        H  0.19234456  0.22763096  0.84918589     0.13800
H623        H  0.14518539  0.22188058  0.80645998     0.13800
N624        N  0.38086848  0.24487741  0.87868498    -0.02500
C625        C  0.34955517  0.23707226  0.88497729     0.00100
C626        C  0.33522485  0.22461322  0.85719197    -0.22800
C627        C  0.35837574  0.22379034  0.83384334    -0.23000
C628        C  0.38666908  0.23591129  0.84743385     0.00000
H629        H  0.31012298  0.21783165  0.85382845     0.13800
H630        H  0.35426137  0.21706373  0.80879332     0.13800
N631        N  0.44935866  0.36448331  0.00410077    -0.35600
N632        N  0.00155747  0.36933612  0.55354740    -0.56200
N633        N  0.04954913  0.36358460  0.00667050    -0.35600
N634        N  0.00148051  0.36248643  0.95599382    -0.56200
C635        C  0.43386507  0.35567743  0.53191432     0.28000
C636        C  0.43047363  0.35601818  0.97840574     0.28000
C637        C  0.06900131  0.36559543  0.52902126     0.28000
C638        C  0.06876468  0.36012289  0.98082031     0.28000
C639        C  0.47715929  0.36155853  0.57421271     0.36600
C640        C  0.02807947  0.36708875  0.57252415     0.36600
C641        C  0.47173965  0.35611901  0.93431321     0.36600
C642        C  0.02711314  0.35455748  0.93785234     0.36600
C643        C  0.40275351  0.34669331  0.52307150    -0.20900
C644        C  0.40007955  0.34740761  0.98897130    -0.20900
C645        C  0.10100968  0.36590821  0.51944344    -0.20900
C646        C  0.10074157  0.36338396  0.99013641    -0.20900
C647        C  0.48801630  0.35903695  0.60591503    -0.22000
C648        C  0.01930917  0.36260015  0.60447237    -0.22000
C649        C  0.48052548  0.34785247  0.90310677    -0.22000
C650        C  0.01724300  0.34702172  0.90661127    -0.22000
C651        C  0.44689259  0.35001479  0.56312963    -0.17300
C652        C  0.44109579  0.34867389  0.94687158    -0.17300
C653        C  0.05830243  0.34907471  0.95032453    -0.17300
C654        C  0.05873480  0.35911385  0.56071194    -0.17300
H655        H  0.38372604  0.33846062  0.53884495     0.15600
H656        H  0.37989976  0.33894800  0.97430380     0.15600
H657        H  0.12233443  0.36607868  0.53473099     0.15600
H658        H  0.12170056  0.36066887  0.97500819     0.15600
H659        H  0.47404477  0.35242594  0.62685557     0.13900
H660        H  0.03525711  0.35827659  0.62489351     0.13900
H661        H  0.46491714  0.34005436  0.88337411     0.13900
H662        H  0.03154763  0.33889349  0.88658045     0.13900
H663        H  0.47334670  0.37142847  0.00336122     0.27100
H664        H  0.02573174  0.35593275  0.00757505     0.27100
O665        O  0.05404607  0.24547519  0.65593856    -0.74300
O666        O  0.09174560  0.24944324  0.69649625    -0.53200
C667        C  0.08350497  0.24552883  0.66659835     0.79400
O668        O  0.44254826  0.33760962  0.74698629    -0.58900
O669        O  0.40875029  0.29390640  0.74628862    -0.51900
C670        C  0.41412720  0.32459523  0.74570641     0.71400
O671        O  0.05182907  0.34453465  0.74502740    -0.73500
O672        O  0.08927803  0.30479759  0.74196134    -0.54000
C673        C  0.08104929  0.33463721  0.74170664     0.77400
O674        O  0.44259321  0.24067945  0.65739303    -0.58600
O675        O  0.40862555  0.24199633  0.70037319    -0.51700
C676        C  0.41421612  0.23951767  0.67008226     0.74000
Zr677      Zr  0.49865737  0.24782673  0.67830887     2.54700
O678        O  0.49839022  0.29521626  0.64436373    -0.79200
O679        O  0.49534560  0.21119535  0.63209739    -0.92600
Zr680      Zr  0.49808644  0.31616654  0.74714741     2.64700
O681        O  0.99525987  0.35656360  0.70358010    -0.97600
O682        O  0.49809429  0.35540491  0.79108337    -0.79600
O683        O  0.02967366  0.28674293  0.71187717    -0.83000
O684        O  0.46728461  0.28126785  0.71236339    -2.17700
O685        O  0.45129898  0.15424596  0.73800291    -0.66400
O686        O  0.41329347  0.19366022  0.73982801    -0.50900
C687        C  0.42202579  0.16424113  0.73584787     0.72400
O688        O  0.05804680  0.24812449  0.83796710    -0.59300
O689        O  0.09207353  0.25356138  0.79512524    -0.51200
C690        C  0.08649266  0.24981811  0.82531912     0.74200
O691        O  0.44520996  0.24378386  0.83913113    -0.70700
O692        O  0.40990016  0.24164249  0.79651598    -0.49300
C693        C  0.41613580  0.24148188  0.82699424     0.75600
O694        O  0.06131682  0.16147958  0.74780336    -0.66000
O695        O  0.09433406  0.20568521  0.74607127    -0.53200
C696        C  0.08958971  0.17498400  0.74637861     0.74000
Zr697      Zr  0.00466902  0.18154110  0.74792217     2.77500
O698        O  0.00382694  0.14491248  0.79368117    -0.96700
O699        O  0.00775029  0.13884870  0.70746536    -0.77600
Zr700      Zr  0.00166474  0.24988989  0.81642428     2.70100
O701        O  0.00198373  0.20885614  0.85836837    -0.78800
O702        O  0.00197491  0.29427547  0.85451630    -0.97900
Zr703      Zr  0.06117147  0.25336608  0.74617132     2.21500
Zr704      Zr  0.44093619  0.24501913  0.74806497     2.11100
O705        O  0.47221015  0.21100776  0.78221494    -2.46600
O706        O  0.03440796  0.21731836  0.78227433    -0.78600
O707        O  0.47149374  0.21164044  0.71310639    -0.70800
O708        O  0.03102511  0.28621324  0.78243312    -2.31800
O709        O  0.03238602  0.21633341  0.71209650    -2.28000
O710        O  0.46916106  0.28155037  0.78294771    -0.72600
H711        H  0.45213662  0.29330238  0.69937889     0.79400
H712        H  0.04505413  0.29994892  0.79537528     0.80500
H713        H  0.45855591  0.19705069  0.79491188     0.82700
H714        H  0.04647046  0.20338708  0.69901714     0.80400
H715        H  0.98905808  0.37839058  0.77977135     0.43400
H716        H  0.47946903  0.28774885  0.86682928     0.42400
H717        H  0.00069576  0.22113421  0.87894177     0.42000
H718        H  0.48379474  0.13080446  0.79049703     0.40000
H719        H  0.50178740  0.11482038  0.72318124     0.43100
H720        H  0.01117193  0.19601945  0.63792982     0.37900
H721        H  0.02265219  0.30373340  0.64481142     0.44000
H722        H  0.51560524  0.34919728  0.68930228     0.40400
H723        H  0.01858567  0.12735866  0.78755157     0.45300
H724        H  0.50530849  0.22325144  0.61407293     0.44100
H725        H  0.47792592  0.34944437  0.69025102     0.44200
H726        H  0.98968693  0.28603091  0.87321521     0.44600
N727        N  0.25369811  0.37786019  0.62334692    -0.02500
C728        C  0.24191483  0.38329414  0.65345791     0.00100
C729        C  0.22809357  0.35560434  0.66564612    -0.22800
C730        C  0.23072388  0.33251435  0.64230893    -0.23000
C731        C  0.24606267  0.34644536  0.61616282     0.00000
H732        H  0.21833219  0.35206843  0.68957678     0.13800
H733        H  0.22227049  0.30783700  0.64434886     0.13800
N734        N  0.24950625  0.11871835  0.61794175    -0.02500
C735        C  0.23538833  0.14721134  0.61027068     0.00100
C736        C  0.21367858  0.15509647  0.63398323    -0.22800
C737        C  0.21270767  0.12989979  0.65528814    -0.23000
C738        C  0.23529318  0.10794392  0.64554587     0.00000
H739        H  0.20123485  0.17755716  0.63662240     0.13800
H740        H  0.19789777  0.12812224  0.67637402     0.13800
N741        N  0.25740056  0.12602907  0.87532711    -0.03700
C742        C  0.24095927  0.15273318  0.88398342     0.00100
C743        C  0.21779177  0.15932982  0.86083358    -0.22800
C744        C  0.22009071  0.13631506  0.83706821    -0.23000
C745        C  0.24429145  0.11578035  0.84668118     0.00000
H746        H  0.19998458  0.17783699  0.86198224     0.13800
H747        H  0.20492520  0.13410438  0.81562806     0.13800
N748        N  0.24831476  0.38316638  0.88236997    -0.02500
C749        C  0.23539659  0.39051613  0.85290751     0.00100
C750        C  0.21502246  0.36578535  0.84275284    -0.22800
C751        C  0.21560334  0.34268724  0.86641425    -0.23000
C752        C  0.23622537  0.35373067  0.89061768     0.00000
H753        H  0.20203205  0.36412598  0.81991355     0.13800
H754        H  0.20331106  0.31955812  0.86548969     0.13800
N755        N  0.37695295  0.50695351  0.56098771    -0.35600
N756        N  0.36464586  0.45679672  0.01161290    -0.56200
N757        N  0.36004625  0.50428605  0.96183034    -0.35600
N758        N  0.37185184  0.05781908  0.00745032    -0.56200
C759        C  0.36814816  0.48305345  0.58151679     0.28000
C760        C  0.37220448  0.03556240  0.57732072     0.28000
C761        C  0.35685117  0.47740092  0.94363211     0.28000
C762        C  0.35812658  0.02887396  0.94357035     0.28000
C763        C  0.36393482  0.43775240  0.54165820     0.36600
C764        C  0.35586864  0.43707450  0.98698195     0.36600
C765        C  0.37020608  0.07592218  0.53229432     0.36600
C766        C  0.36175467  0.07484645  0.98151641     0.36600
C767        C  0.36359382  0.49577158  0.61215924    -0.20900
C768        C  0.36629101  0.02868181  0.60954588    -0.20900
C769        C  0.35726602  0.48532095  0.91106938    -0.20900
C770        C  0.35526510  0.01705754  0.91228771    -0.20900
C771        C  0.35621300  0.40593338  0.53419869    -0.22000
C772        C  0.35066453  0.40632515  0.99791554    -0.22000
C773        C  0.36332717  0.10697178  0.52213276    -0.22000
C774        C  0.35736481  0.10675524  0.99006963    -0.22000
C775        C  0.35840389  0.45148031  0.57243208    -0.17300
C776        C  0.36276656  0.06504960  0.56356387    -0.17300
C777        C  0.35144656  0.06071768  0.95201094    -0.17300
C778        C  0.34716327  0.44743480  0.95591512    -0.17300
H779        H  0.35514260  0.48345258  0.63341830     0.15600
H780        H  0.36040851  0.04567059  0.62853787     0.15600
H781        H  0.35339488  0.46959691  0.89048342     0.15600
H782        H  0.35158500  0.03099284  0.89054683     0.15600
H783        H  0.35130966  0.38667338  0.55102250     0.13900
H784        H  0.34335369  0.38582627  0.98334406     0.13900
H785        H  0.35922969  0.12799103  0.53705097     0.13900
H786        H  0.34826329  0.12615085  0.97537210     0.13900
H787        H  0.38058679  0.50509664  0.53627438     0.27100
H788        H  0.35360064  0.50614412  0.98597000     0.27100
N789        N  0.11903395  0.38404000  0.74857533    -0.02500
C790        C  0.10702846  0.35775931  0.73233691     0.00100
C791        C  0.12593286  0.35176127  0.70575113    -0.22800
C792        C  0.15005661  0.37479982  0.70561203    -0.23000
C793        C  0.14557144  0.39410871  0.73239186     0.00000
H794        H  0.12254972  0.33215618  0.68868045     0.13800
H795        H  0.16881251  0.37734993  0.68789003     0.13800
N796        N  0.38661047  0.11462545  0.74208689    -0.02500
C797        C  0.39634908  0.14118638  0.72579266     0.00100
C798        C  0.37523084  0.14701424  0.70049593    -0.22800
C799        C  0.35144446  0.12370666  0.70193820    -0.23000
C800        C  0.35881567  0.10431987  0.72781274     0.00000
H801        H  0.37674966  0.16637362  0.68326264     0.13800
H802        H  0.33042288  0.12109217  0.68650081     0.13800
N803        N  0.12568396  0.12461416  0.75251562    -0.02500
C804        C  0.11949720  0.15529920  0.74224543     0.00100
C805        C  0.14695941  0.16868923  0.72902428    -0.22800
C806        C  0.17065938  0.14618392  0.73140826    -0.23000
C807        C  0.15719984  0.11880067  0.74489599     0.00000
H808        H  0.14991440  0.19291956  0.71983826     0.13800
H809        H  0.19560718  0.14998868  0.72499497     0.13800
N810        N  0.37951857  0.37594953  0.75066050    -0.02500
C811        C  0.34859517  0.38294907  0.74132722     0.00100
C812        C  0.33534384  0.35692376  0.72461157    -0.22800
C813        C  0.35813355  0.33324448  0.72405289    -0.23000
C814        C  0.38502728  0.34508234  0.74043572     0.00000
H815        H  0.31135235  0.35519286  0.71408336     0.13800
H816        H  0.35522198  0.30962616  0.71306673     0.13800
N817        N  0.01389929  0.46056416  0.85875093    -0.35600
N818        N  0.46095733  0.50487263  0.86013954    -0.56200
N819        N  0.00578928  0.05823453  0.87186089    -0.35600
N820        N  0.06274239  0.50981179  0.87318918    -0.56200
C821        C  0.48808920  0.44011663  0.85018943     0.28000
C822        C  0.04033185  0.44226114  0.86277606     0.28000
C823        C  0.47928784  0.07769763  0.86395900     0.28000
C824        C  0.03164363  0.07806978  0.86823599     0.28000
C825        C  0.44397288  0.47948913  0.84836272     0.36600
C826        C  0.43762399  0.03349509  0.86116737     0.36600
C827        C  0.08253699  0.48515809  0.86567399     0.36600
C828        C  0.07626928  0.03741691  0.86913569     0.36600
C829        C  0.49840255  0.40861810  0.85044802    -0.20900
C830        C  0.03164085  0.40999866  0.85928438    -0.20900
C831        C  0.48802951  0.10941502  0.85818354    -0.20900
C832        C  0.02110642  0.10910879  0.86220663    -0.20900
C833        C  0.41252561  0.48805062  0.84176454    -0.22000
C834        C  0.40667306  0.02317469  0.85276590    -0.22000
C835        C  0.11339522  0.49673360  0.86066441    -0.22000
C836        C  0.10801479  0.02955221  0.86283267    -0.22000
C837        C  0.45738066  0.44979854  0.83976175    -0.17300
C838        C  0.07205030  0.45359163  0.85749174    -0.17300
C839        C  0.06353370  0.06811681  0.86189059    -0.17300
C840        C  0.44904219  0.06466806  0.85425225    -0.17300
H841        H  0.48448084  0.38729118  0.84415353     0.15600
H842        H  0.04781084  0.38973337  0.85824574     0.15600
H843        H  0.47239048  0.12869578  0.85042582     0.15600
H844        H  0.03570408  0.13007720  0.85674212     0.15600
H845        H  0.39343003  0.47301697  0.83175365     0.13900
H846        H  0.38625735  0.03798918  0.84647355     0.13900
H847        H  0.13411376  0.48345825  0.85297094     0.13900
H848        H  0.12763972  0.04599247  0.85738005     0.13900
H849        H  0.01426555  0.48493530  0.85348539     0.27100
H850        H  0.00636933  0.03361394  0.87530206     0.27100
O851        O  0.24859217  0.44091537  0.66075529    -0.74300
O852        O  0.24682802  0.40713855  0.70417466    -0.53200
C853        C  0.24651961  0.41258125  0.67372483     0.79400
O854        O  0.34670703  0.04997882  0.74236661    -0.58900
O855        O  0.30677836  0.08754618  0.74099879    -0.51900
C856        C  0.33640822  0.07899521  0.73889670     0.71400
O857        O  0.34265023  0.44085559  0.74820030    -0.73500
O858        O  0.29838319  0.40776003  0.74901298    -0.54000
C859        C  0.32911536  0.41261478  0.74743791     0.77400
O860        O  0.24517449  0.05157455  0.65640316    -0.58600
O861        O  0.24931228  0.08878025  0.69720332    -0.51700
C862        C  0.24500526  0.08090326  0.66723875     0.74000
Zr863      Zr  0.25055719  0.99739033  0.68132089     2.54700
O864        O  0.29329016  0.99989533  0.64173803    -0.79200
O865        O  0.20860151  0.99083745  0.64003878    -0.92600
Zr866      Zr  0.32106364  0.99662700  0.74900320     2.64700
O867        O  0.35748769  0.98988162  0.70367305    -0.97600
O868        O  0.36582656  0.00023885  0.78722756    -0.79600
O869        O  0.28491295  0.46651820  0.71490629    -0.83000
O870        O  0.28762137  0.02758694  0.71371041    -2.17700
O871        O  0.16343430  0.06040163  0.75080545    -0.66400
O872        O  0.20765621  0.09337653  0.74857080    -0.50900
C873        C  0.17690255  0.08872022  0.74925298     0.72400
O874        O  0.24750021  0.44685373  0.84271580    -0.59300
O875        O  0.24415333  0.41063995  0.80107610    -0.51200
C876        C  0.24351565  0.41795840  0.83129174     0.74200
O877        O  0.25194938  0.05891001  0.83958561    -0.70700
O878        O  0.25641687  0.09303904  0.79655799    -0.49300
C879        C  0.25277814  0.08732721  0.82687056     0.75600
O880        O  0.15870318  0.44937560  0.74455095    -0.66000
O881        O  0.19839995  0.41157169  0.74501014    -0.53200
C882        C  0.16872889  0.42004486  0.74219991     0.74000
Zr883      Zr  0.18413930  0.50353173  0.75044597     2.77500
O884        O  0.14556474  0.50293033  0.79432732    -0.96700
O885        O  0.14219317  0.50729773  0.70904304    -0.77600
Zr886      Zr  0.25530006  0.50127774  0.81866426     2.70100
O887        O  0.22219947  0.50271237  0.86696208    -0.78800
O888        O  0.30364266  0.50163671  0.85253769    -0.97900
Zr889      Zr  0.24964551  0.44004091  0.75139384     2.21500
Zr890      Zr  0.25554087  0.06025198  0.74808074     2.11100
O891        O  0.22042620  0.03312680  0.78452003    -2.46600
O892        O  0.21717728  0.47200699  0.78585933    -0.78600
O893        O  0.21845244  0.03083181  0.71489550    -0.70800
O894        O  0.28748427  0.46851249  0.78467754    -2.31800
O895        O  0.21612934  0.47073567  0.71616396    -2.28000
O896        O  0.28996200  0.03058529  0.78344767    -0.72600
H897        H  0.30051744  0.04055230  0.69932128     0.79400
H898        H  0.30004165  0.45390358  0.79763287     0.80500
H899        H  0.20814518  0.04820535  0.79715215     0.82700
H900        H  0.20236106  0.45711649  0.70284932     0.80400
H901        H  0.38653994  0.50170117  0.77043329     0.43400
H902        H  0.30251919  0.98408321  0.86439015     0.42400
H903        H  0.19989447  0.50506355  0.85855708     0.42000
H904        H  0.13303622  0.02411729  0.79280879     0.40000
H905        H  0.12588809  0.99246104  0.71407366     0.43100
H906        H  0.19440460  0.51258714  0.64431312     0.37900
H907        H  0.30070843  0.51941464  0.63825605     0.44000
H908        H  0.34747866  0.97232296  0.69060079     0.40400
H909        H  0.12967843  0.48591513  0.78827234     0.45300
H910        H  0.19095511  0.00490706  0.64737882     0.44100
H911        H  0.35456366  0.00940970  0.69032747     0.44200
H912        H  0.32182479  0.50266193  0.83722403     0.44600
C913        C  0.39531585  0.39048649  0.80638973    -0.11300
C914        C  0.39949208  0.39418268  0.77287010     0.05700
C915        C  0.42367714  0.41527922  0.76159815    -0.06600
C916        C  0.44319090  0.43230824  0.78376059    -0.07300
C917        C  0.43880287  0.42874306  0.81708255    -0.01900
C918        C  0.41481084  0.40788761  0.82839543     0.04900
N919        N  0.41003968  0.40534775  0.86234627     0.67400
H920        H  0.37673016  0.37442342  0.81523625     0.16300
H921        H  0.46139624  0.44891407  0.77496282     0.16100
N922        N  0.42835699  0.42017772  0.72779418     0.75200
O923        O  0.39788893  0.42903826  0.87668735    -0.38300
O924        O  0.42929560  0.38810649  0.87811497    -0.38200
O925        O  0.41696308  0.44511899  0.71484519    -0.38900
O926        O  0.45121119  0.40591895  0.71407535    -0.39000
C927        C  0.07339684  0.07185641  0.80337300    -0.11300
C928        C  0.07943932  0.08475781  0.83442147     0.05700
C929        C  0.10062727  0.11128109  0.83804068    -0.06600
C930        C  0.11580901  0.12383832  0.81067091    -0.07300
C931        C  0.10989259  0.11059137  0.77975470    -0.01900
C932        C  0.08820199  0.08469860  0.77609284     0.04900
N933        N  0.08095332  0.07119625  0.74497155     0.67400
H934        H  0.05730161  0.05127424  0.80046404     0.16300
H935        H  0.13232515  0.14411307  0.81338356     0.16100
N936        N  0.10709574  0.12561328  0.86898946     0.75200
O937        O  0.09422844  0.04524578  0.73681027    -0.38300
O938        O  0.05550901  0.07959020  0.73041775    -0.38200
O939        O  0.13262452  0.11824815  0.88398299    -0.38900
O940        O  0.09307977  0.15143521  0.87637756    -0.39000
C941        C  0.40638776  0.09836675  0.82877737    -0.11300
C942        C  0.43381729  0.07942753  0.82545535     0.05700
C943        C  0.44480010  0.07114581  0.79418312    -0.06600
C944        C  0.42885212  0.08281646  0.76689394    -0.07300
C945        C  0.40163877  0.10181773  0.77032550    -0.01900
C946        C  0.39005348  0.10917449  0.80122768     0.04900
N947        N  0.36238544  0.12871051  0.80469549     0.67400
H948        H  0.39740537  0.10414221  0.85264695     0.16300
H949        H  0.43751781  0.07696281  0.74292257     0.16100
N950        N  0.47175915  0.05047217  0.78979312     0.75200
O951        O  0.33578384  0.11615496  0.81256920    -0.38300
O952        O  0.36571315  0.15889159  0.80453077    -0.38200
O953        O  0.46680866  0.02082325  0.78462073    -0.38900
O954        O  0.49852359  0.06276645  0.78215175    -0.39000
C955        C  0.12504447  0.39947906  0.80560394    -0.11300
C956        C  0.10682262  0.39953721  0.77673803     0.05700
C957        C  0.08011631  0.41969719  0.77389942    -0.06600
C958        C  0.07111846  0.43840477  0.80014728    -0.07300
C959        C  0.08789712  0.43711165  0.82990377    -0.01900
C960        C  0.11589376  0.41812553  0.83235339     0.04900
N961        N  0.13617389  0.41869800  0.86060303     0.67400
H962        H  0.14682394  0.38537544  0.80697374     0.16300
H963        H  0.05020310  0.45370036  0.79755198     0.16100
N964        N  0.06302665  0.42290325  0.74387903     0.75200
O965        O  0.13185762  0.39782467  0.88223173    -0.38300
O966        O  0.16334330  0.43257712  0.85908738    -0.38200
O967        O  0.03502823  0.41095524  0.74111674    -0.38900
O968        O  0.07171096  0.44460729  0.72443717    -0.39000
C969        C  0.26521805  0.41475479  0.92936580    -0.11300
C970        C  0.27281793  0.40057223  0.89976154     0.05700
C971        C  0.30483630  0.40111978  0.88908807    -0.06600
C972        C  0.32902984  0.41333699  0.90940283    -0.07300
C973        C  0.32157758  0.42929471  0.93801880    -0.01900
C974        C  0.28914862  0.42989186  0.94817232     0.04900
N975        N  0.28023851  0.44429752  0.97815518     0.67400
H976        H  0.24055216  0.41410319  0.93774834     0.16300
H977        H  0.35362104  0.41088902  0.90261527     0.16100
N978        N  0.31301129  0.39088686  0.85724754     0.75200
O979        O  0.26703675  0.47150083  0.97786612    -0.38300
O980        O  0.27550066  0.42609421  0.00198196    -0.38200
O981        O  0.31938087  0.41194969  0.83630287    -0.38900
O982        O  0.32311603  0.36275633  0.85304770    -0.39000
C983        C  0.27335966  0.08080923  0.90820273    -0.11300
C984        C  0.28141846  0.11002286  0.89412658     0.05700
C985        C  0.31252634  0.12310689  0.89909189    -0.06600
C986        C  0.33563409  0.10603986  0.91645873    -0.07300
C987        C  0.32730241  0.07733241  0.93158319    -0.01900
C988        C  0.29565887  0.06463793  0.92728508     0.04900
N989        N  0.28533558  0.03552340  0.94219548     0.67400
H990        H  0.24922412  0.07094444  0.90500266     0.16300
H991        H  0.35976014  0.11602218  0.91941596     0.16100
N992        N  0.32056610  0.15470686  0.88914037     0.75200
O993        O  0.26764203  0.03766439  0.96672412    -0.38300
O994        O  0.28286331  0.01065974  0.92462979    -0.38200
O995        O  0.31763615  0.17686462  0.90983656    -0.38900
O996        O  0.34164802  0.15780807  0.86764093    -0.39000
C997        C  0.33545970  0.10850373  0.59392634    -0.11300
C998        C  0.33349179  0.07905405  0.57781074     0.05700
C999        C  0.30335990  0.06291365  0.57469526    -0.06600
C1000       C  0.27609058  0.07600654  0.58870818    -0.07300
C1001       C  0.27792728  0.10588773  0.60395108    -0.01900
C1002       C  0.30766326  0.12254843  0.60585601     0.04900
N1003       N  0.30967090  0.15477632  0.61728625     0.67400
H1004       H  0.35836601  0.12121363  0.59601599     0.16300
H1005       H  0.25312331  0.06340500  0.58678315     0.16100
N1006       N  0.29988552  0.03358783  0.55679693     0.75200
O1007       O  0.31987206  0.16005271  0.64564776    -0.38300
O1008       O  0.31219351  0.17674298  0.59653926    -0.38200
O1009       O  0.29194259  0.00832424  0.57163185    -0.38900
O1010       O  0.29497133  0.03498121  0.52666179    -0.39000
C1011       C  0.30911324  0.39842375  0.62901390    -0.11300
C1012       C  0.28009890  0.39641119  0.61091335     0.05700
C1013       C  0.27569509  0.41681151  0.58451742    -0.06600
C1014       C  0.30118524  0.43617574  0.57453613    -0.07300
C1015       C  0.33131424  0.43615245  0.59046157    -0.01900
C1016       C  0.33470338  0.41890672  0.61972514     0.04900
N1017       N  0.36331075  0.42137793  0.63993468     0.67400
H1018       H  0.31146485  0.38404974  0.65072736     0.16300
H1019       H  0.29789816  0.45072967  0.55330978     0.16100
N1020       N  0.24528855  0.41890204  0.56816637     0.75200
O1021       O  0.36262600  0.41182379  0.66891202    -0.38300
O1022       O  0.38985051  0.43110019  0.62866264    -0.38200
O1023       O  0.22607778  0.44076806  0.57640657    -0.38900
O1024       O  0.24196721  0.40604133  0.54058392    -0.39000
C1025       C  0.39999027  0.32808342  0.90649895    -0.11300
C1026       C  0.42362424  0.32197946  0.93005802     0.05700
C1027       C  0.43256794  0.28987815  0.93656960    -0.06600
C1028       C  0.41867477  0.26457518  0.91914007    -0.07300
C1029       C  0.39669146  0.27092323  0.89465027    -0.01900
C1030       C  0.38742661  0.30268002  0.88788728     0.04900
N1031       N  0.36524451  0.30890902  0.86205184     0.67400
H1032       H  0.39140167  0.35222441  0.90254032     0.16300
H1033       H  0.42528101  0.23993744  0.92438515     0.16100
N1034       N  0.45715753  0.28266267  0.95957776     0.75200
O1035       O  0.37580947  0.31201577  0.83366931    -0.38300
O1036       O  0.33566351  0.30295458  0.86600778    -0.38200
O1037       O  0.44922862  0.27120088  0.98661072    -0.38900
O1038       O  0.48499040  0.27738861  0.94907265    -0.39000
C1039       C  0.09503073  0.27046989  0.92400846    -0.11300
C1040       C  0.10647587  0.27861316  0.89352191     0.05700
C1041       C  0.10415040  0.31063797  0.88254433    -0.06600
C1042       C  0.09088737  0.33406207  0.90258174    -0.07300
C1043       C  0.07876904  0.32584762  0.93291597    -0.01900
C1044       C  0.08130027  0.29370472  0.94386693     0.04900
N1045       N  0.06885709  0.28378380  0.97440529     0.67400
H1046       H  0.09691647  0.24584971  0.93239567     0.16300
H1047       H  0.08786320  0.35828941  0.89361175     0.16100
N1048       N  0.11398649  0.31949818  0.85074478     0.75200
O1049       O  0.08723450  0.28483381  0.99893442    -0.38300
O1050       O  0.04492933  0.26480877  0.97466452    -0.38200
O1051       O  0.09275342  0.32632626  0.82982925    -0.38900
O1052       O  0.14271388  0.32845844  0.84626677    -0.39000
C1053       C  0.43678013  0.29119995  0.56770177    -0.11300
C1054       C  0.43231173  0.32224377  0.58056648     0.05700
C1055       C  0.41135647  0.32615345  0.60658586    -0.06600
C1056       C  0.39443296  0.29980948  0.61858121    -0.07300
C1057       C  0.39803609  0.26918764  0.60507219    -0.01900
C1058       C  0.41992588  0.26459992  0.57984617     0.04900
N1059       N  0.42493669  0.23350634  0.56603030     0.67400
H1060       H  0.45280128  0.28788623  0.54749859     0.16300
H1061       H  0.37739594  0.30333066  0.63799011     0.16100
N1062       N  0.40280490  0.35715836  0.61752384     0.75200
O1063       O  0.44916879  0.21760637  0.57500357    -0.38300
O1064       O  0.41143588  0.22654472  0.53934957    -0.38200
O1065       O  0.41184521  0.36621905  0.64544034    -0.38900
O1066       O  0.37785066  0.36901881  0.60501977    -0.39000
C1067       C  0.10566910  0.33742250  0.59162318    -0.11300
C1068       C  0.07537204  0.33243070  0.57725128     0.05700
C1069       C  0.06163440  0.30106833  0.57662613    -0.06600
C1070       C  0.07797053  0.27579079  0.59093977    -0.07300
C1071       C  0.10815886  0.28068115  0.60531249    -0.01900
C1072       C  0.12254742  0.31152945  0.60480923     0.04900
N1073       N  0.15480725  0.31673148  0.61562698     0.67400
H1074       H  0.11662017  0.36124618  0.59176835     0.16300
H1075       H  0.06717418  0.25188949  0.59061623     0.16100
N1076       N  0.03098317  0.29432911  0.56182820     0.75200
O1077       O  0.15952128  0.33120464  0.64215385    -0.38300
O1078       O  0.17655121  0.31779965  0.59458325    -0.38200
O1079       O  0.03007365  0.28049656  0.53460643    -0.38900
O1080       O  0.00681037  0.29163590  0.57982806    -0.39000
O1081       O  0.34163573  0.74708438  0.05574378    -0.74300
O1082       O  0.29837921  0.74662346  0.08935332    -0.53200
C1083       C  0.32885697  0.74576338  0.08413172     0.79400
O1084       O  0.24667804  0.84153646  0.44546508    -0.58900
O1085       O  0.24761937  0.79951658  0.40962087    -0.51900
C1086       C  0.24573885  0.82965510  0.41634646     0.71400
O1087       O  0.25210528  0.84051514  0.05870537    -0.73500
O1088       O  0.25036021  0.79656794  0.09129340    -0.54000
C1089       C  0.25132721  0.82713978  0.08690062     0.77400
O1090       O  0.34118602  0.74644294  0.44374178    -0.58600
O1091       O  0.29869310  0.74860660  0.40844945    -0.51700
C1092       C  0.32892430  0.74603595  0.41462438     0.74000
Zr1093     Zr  0.31869827  0.74969902  0.50005079     2.54700
O1094       O  0.35602095  0.79469234  0.50171232    -0.79200
O1095       O  0.36126524  0.70976443  0.50168133    -0.92600
Zr1096     Zr  0.24965018  0.81853743  0.50113518     2.64700
O1097       O  0.29150059  0.85961867  0.50108796    -0.97600
O1098       O  0.20694796  0.85830980  0.50289850    -0.79600
O1099       O  0.28425289  0.78328539  0.03188046    -0.83000
O1100       O  0.28497650  0.78532211  0.47021048    -2.17700
O1101       O  0.24789865  0.65907706  0.44324115    -0.66400
O1102       O  0.24609466  0.70147006  0.40821821    -0.50900
C1103       C  0.24547299  0.67124001  0.41459644     0.72400
O1104       O  0.15717077  0.74097983  0.05050532    -0.59300
O1105       O  0.19761812  0.74292623  0.08851063    -0.51200
C1106       C  0.16772720  0.73978464  0.08002700     0.74200
O1107       O  0.15977205  0.74796769  0.44089358    -0.70700
O1108       O  0.20281738  0.74894916  0.40706569    -0.49300
C1109       C  0.17252821  0.74743049  0.41239525     0.75600
O1110       O  0.24477459  0.65775318  0.05363968    -0.66000
O1111       O  0.24369117  0.69920172  0.09007409    -0.53200
C1112       C  0.24276923  0.66908234  0.08287658     0.74000
Zr1113     Zr  0.24854228  0.68143922  0.99826429     2.77500
O1114       O  0.20565263  0.64092948  0.99842987    -0.96700
O1115       O  0.29197204  0.64251071  0.99861965    -0.77600
Zr1116     Zr  0.18128148  0.75047307  0.99688543     2.70100
O1117       O  0.13447281  0.71470045  0.99300504    -0.78800
O1118       O  0.14982926  0.79928347  0.00102548    -0.97900
Zr1119     Zr  0.24830983  0.74817684  0.05930577     2.21500
Zr1120     Zr  0.25040863  0.75025566  0.43991112     2.11100
O1121       O  0.21497219  0.71446907  0.46753477    -2.46600
O1122       O  0.21844157  0.71953250  0.02316130    -0.78600
O1123       O  0.28479761  0.71463798  0.46866726    -0.70800
O1124       O  0.21414938  0.78418123  0.03090447    -2.31800
O1125       O  0.28380656  0.71425574  0.03004383    -2.28000
O1126       O  0.21515313  0.78476774  0.46857750    -0.72600
H1127       H  0.29790666  0.79849172  0.45601541     0.79400
H1128       H  0.20094487  0.79635109  0.04552758     0.80500
H1129       H  0.20184763  0.70148583  0.45295296     0.82700
H1130       H  0.29634695  0.70069689  0.04411715     0.80400
H1131       H  0.19506938  0.85278518  0.02502193     0.43400
H1132       H  0.12223083  0.78226612  0.48877046     0.42400
H1133       H  0.14173051  0.69637857  0.97956503     0.42000
H1134       H  0.21686302  0.62013867  0.50123853     0.40000
H1135       H  0.30235702  0.64330393  0.52057414     0.43100
H1136       H  0.35804051  0.69716315  0.98041683     0.37900
H1137       H  0.34093979  0.81304509  0.00959425     0.44000
H1138       H  0.27987083  0.88017459  0.49853860     0.40400
H1139       H  0.21623059  0.62082598  0.99139356     0.45300
H1140       H  0.35194151  0.69071738  0.49030649     0.44100
H1141       H  0.29991224  0.86015111  0.52362354     0.44200
H1142       H  0.13476096  0.79522160  0.01902429     0.44600
N1143       N  0.12377126  0.75125233  0.12129674    -0.02500
C1144       C  0.10961153  0.73335281  0.14494815     0.00100
C1145       C  0.12161101  0.70248194  0.14473091    -0.22800
C1146       C  0.14329612  0.70108692  0.11978352    -0.23000
C1147       C  0.14478856  0.73135178  0.10619038     0.00000
H1148       H  0.11406494  0.68263755  0.15989203     0.13800
H1149       H  0.15513175  0.67973918  0.11109641     0.13800
N1150       N  0.38099569  0.74409956  0.11883012    -0.02500
C1151       C  0.38626186  0.73524641  0.15018943     0.00100
C1152       C  0.35771179  0.72584289  0.16443991    -0.22800
C1153       C  0.33414290  0.72876669  0.14166335    -0.23000
C1154       C  0.34866610  0.73951884  0.11372568     0.00000
H1155       H  0.35388985  0.71975652  0.18958554     0.13800
H1156       H  0.30869539  0.72429949  0.14546760     0.13800
N1157       N  0.12176305  0.75130977  0.37694000    -0.02500
C1158       C  0.15258420  0.74210248  0.38279999     0.00100
C1159       C  0.16494629  0.72745468  0.35558126    -0.22800
C1160       C  0.14071166  0.72590363  0.33299498    -0.23000
C1161       C  0.11441411  0.74090487  0.34643189     0.00000
H1162       H  0.18960166  0.72036668  0.35177893     0.13800
H1163       H  0.14268441  0.71653172  0.30857077     0.13800
N1164       N  0.38036756  0.74611495  0.37931172    -0.02500
C1165       C  0.34881448  0.73884242  0.38521371     0.00100
C1166       C  0.33480747  0.72594463  0.35746268    -0.22800
C1167       C  0.35826004  0.72456279  0.33444954    -0.23000
C1168       C  0.38643751  0.73672130  0.34823465     0.00000
H1169       H  0.30976924  0.71900220  0.35393086     0.13800
H1170       H  0.35445200  0.71739579  0.30946752     0.13800
N1171       N  0.45393884  0.86094181  0.50641362    -0.35600
N1172       N  0.00091838  0.86717077  0.05569212    -0.56200
N1173       N  0.05199727  0.86791985  0.50344213    -0.35600
N1174       N  0.99956517  0.86245072  0.45461775    -0.56200
C1175       C  0.43301979  0.85911416  0.03359861     0.28000
C1176       C  0.43448670  0.85462342  0.48066383     0.28000
C1177       C  0.06727819  0.86138862  0.02994872     0.28000
C1178       C  0.06899151  0.85850023  0.47732683     0.28000
C1179       C  0.47646717  0.86349172  0.07612538     0.36600
C1180       C  0.02765175  0.86430735  0.07433647     0.36600
C1181       C  0.47501275  0.85642155  0.43688281     0.36600
C1182       C  0.02518244  0.85871931  0.43539893     0.36600
C1183       C  0.40172185  0.85073608  0.02492157    -0.20900
C1184       C  0.40347262  0.84895852  0.49102858    -0.20900
C1185       C  0.09892400  0.86081027  0.01933917    -0.20900
C1186       C  0.10063300  0.85291798  0.48665907    -0.20900
C1187       C  0.48707276  0.85931156  0.10773254    -0.22000
C1188       C  0.01929494  0.86042218  0.10645234    -0.22000
C1189       C  0.48412935  0.85274662  0.40493613    -0.22000
C1190       C  0.01514006  0.85448705  0.40364266    -0.22000
C1191       C  0.44615186  0.85259898  0.06458884    -0.17300
C1192       C  0.44484652  0.84700162  0.44920151    -0.17300
C1193       C  0.05572476  0.84956635  0.44680496    -0.17300
C1194       C  0.05807579  0.85608839  0.06212067    -0.17300
H1195       H  0.38277550  0.84260383  0.04081172     0.15600
H1196       H  0.38288322  0.84249073  0.47598289     0.15600
H1197       H  0.12071551  0.86107127  0.03396608     0.15600
H1198       H  0.12041006  0.84487158  0.47203995     0.15600
H1199       H  0.47275312  0.85227267  0.12830092     0.13900
H1200       H  0.03534230  0.85565085  0.12669596     0.13900
H1201       H  0.46902773  0.84643820  0.38433219     0.13900
H1202       H  0.03022012  0.84943335  0.38311030     0.13900
H1203       H  0.47867353  0.86222435  0.50615040     0.27100
H1204       H  0.02777452  0.87314518  0.50377206     0.27100
O1205       O  0.05394447  0.74315874  0.15623020    -0.74300
O1206       O  0.09136624  0.74750719  0.19707216    -0.53200
C1207       C  0.08333506  0.74321244  0.16712803     0.79400
O1208       O  0.44250552  0.83939877  0.24929298    -0.58900
O1209       O  0.40916511  0.79531160  0.24785419    -0.51900
C1210       C  0.41423514  0.82608001  0.24787323     0.71400
O1211       O  0.05207561  0.84422888  0.24483234    -0.73500
O1212       O  0.08883936  0.80382148  0.24276135    -0.54000
C1213       C  0.08114819  0.83378979  0.24201195     0.77400
O1214       O  0.44407723  0.74219669  0.15781724    -0.58600
O1215       O  0.40994027  0.74346468  0.20068971    -0.51700
C1216       C  0.41561642  0.74108242  0.17037266     0.74000
Zr1217     Zr  0.50006785  0.74827339  0.17964094     2.54700
O1218       O  0.49896626  0.79291832  0.14204422    -0.79200
O1219       O  0.49909873  0.70725029  0.13717226    -0.92600
Zr1220     Zr  0.49818407  0.81845681  0.24786354     2.64700
O1221       O  0.99666079  0.85606297  0.20308710    -0.97600
O1222       O  0.49948003  0.86086510  0.28864029    -0.79600
O1223       O  0.02936988  0.78485564  0.21211602    -0.83000
O1224       O  0.46866484  0.78194861  0.21359789    -2.17700
O1225       O  0.45181162  0.65548673  0.24044943    -0.66400
O1226       O  0.41387763  0.69501155  0.24091032    -0.50900
C1227       C  0.42252022  0.66548744  0.23761847     0.72400
O1228       O  0.05690504  0.74633834  0.33875795    -0.59300
O1229       O  0.09152108  0.75219892  0.29644553    -0.51200
C1230       C  0.08547425  0.74781601  0.32650200     0.74200
O1231       O  0.44477092  0.74582449  0.34059344    -0.70700
O1232       O  0.41015086  0.74210408  0.29748598    -0.49300
C1233       C  0.41598891  0.74244056  0.32805674     0.75600
O1234       O  0.06187787  0.66103809  0.24846469    -0.66000
O1235       O  0.09470416  0.70539042  0.24699650    -0.53200
C1236       C  0.09007389  0.67470954  0.24702711     0.74000
Zr1237     Zr  0.00496601  0.68033169  0.24970911     2.77500
O1238       O  0.00396298  0.64581774  0.29694700    -0.96700
O1239       O  0.01005934  0.63401260  0.21382580    -0.77600
Zr1240     Zr  0.00084968  0.75004097  0.31742159     2.70100
O1241       O  0.00181506  0.71352576  0.36340904    -0.78800
O1242       O  0.00140634  0.79645242  0.35321442    -0.97900
Zr1243     Zr  0.06092684  0.75243125  0.24699492     2.21500
Zr1244     Zr  0.44139818  0.74638462  0.24915517     2.11100
O1245       O  0.47235683  0.71312580  0.28434916    -2.46600
O1246       O  0.03363617  0.71733586  0.28337182    -0.78600
O1247       O  0.47266131  0.71287223  0.21519006    -0.70800
O1248       O  0.03046236  0.78552768  0.28260403    -2.31800
O1249       O  0.03193745  0.71517738  0.21347804    -2.28000
O1250       O  0.46893430  0.78373288  0.28345489    -0.72600
H1251       H  0.45346544  0.79369905  0.20041094     0.79400
H1252       H  0.04463509  0.79926286  0.29543000     0.80500
H1253       H  0.45868405  0.69924880  0.29710929     0.82700
H1254       H  0.04610511  0.70213360  0.20059959     0.80400
H1255       H  0.99385224  0.87909881  0.27789269     0.43400
H1256       H  0.52530223  0.80213622  0.35632531     0.42400
H1257       H  0.01430737  0.69478467  0.35582718     0.42000
H1258       H  0.48377094  0.63305312  0.29402700     0.40000
H1259       H  0.50055753  0.64277202  0.19268221     0.43100
H1260       H  0.01106342  0.69310507  0.13907889     0.37900
H1261       H  0.97419011  0.79519840  0.13767665     0.44000
H1262       H  0.51135498  0.84948425  0.18786915     0.40400
H1263       H  0.02147146  0.63021770  0.29330324     0.45300
H1264       H  0.51940474  0.69523127  0.14013829     0.44100
H1265       H  0.47379978  0.84946556  0.19112596     0.44200
H1266       H  0.99406807  0.81443407  0.33940972     0.44600
N1267       N  0.25437450  0.87767382  0.12456335    -0.02500
C1268       C  0.24384637  0.88227656  0.15525873     0.00100
C1269       C  0.23199489  0.85391669  0.16793925    -0.22800
C1270       C  0.23382027  0.83133569  0.14411054    -0.23000
C1271       C  0.24741237  0.84609502  0.11742934     0.00000
H1272       H  0.22424178  0.84956983  0.19246474     0.13800
H1273       H  0.22625950  0.80638875  0.14627238     0.13800
N1274       N  0.25074461  0.61902268  0.11867617    -0.02500
C1275       C  0.23623263  0.64723512  0.11072499     0.00100
C1276       C  0.21420376  0.65490746  0.13420353    -0.22800
C1277       C  0.21351765  0.62986866  0.15569785    -0.23000
C1278       C  0.23653901  0.60822890  0.14628279     0.00000
H1279       H  0.20123556  0.67711327  0.13646371     0.13800
H1280       H  0.19842936  0.62789194  0.17656514     0.13800
N1281       N  0.25696583  0.62489449  0.37631658    -0.03700
C1282       C  0.23904334  0.64996373  0.38655835     0.00100
C1283       C  0.21334314  0.65453486  0.36568256    -0.22800
C1284       C  0.21570106  0.63201996  0.34142815    -0.23000
C1285       C  0.24240983  0.61377874  0.34872302     0.00000
H1286       H  0.19388261  0.67108977  0.36890476     0.13800
H1287       H  0.19892789  0.62838866  0.32141733     0.13800
N1288       N  0.24946928  0.88129627  0.38232291    -0.02500
C1289       C  0.23762886  0.88979598  0.35263192     0.00100
C1290       C  0.22031820  0.86408249  0.33950350    -0.22800
C1291       C  0.22223910  0.83925140  0.36103196    -0.23000
C1292       C  0.23930336  0.85052943  0.38771430     0.00000
H1293       H  0.20894249  0.86284328  0.31578277     0.13800
H1294       H  0.21261788  0.81516560  0.35726852     0.13800
N1295       N  0.37520146  0.00985283  0.06199491    -0.35600
N1296       N  0.36589662  0.95559098  0.51333438    -0.56200
N1297       N  0.35761977  0.00309753  0.46338362    -0.35600
N1298       N  0.37298306  0.55510000  0.50640381    -0.56200
C1299       C  0.36650925  0.98591591  0.08250501     0.28000
C1300       C  0.37264106  0.53588340  0.07642868     0.28000
C1301       C  0.35295047  0.97608017  0.44574313     0.28000
C1302       C  0.35836824  0.52678902  0.44280144     0.28000
C1303       C  0.36261068  0.94033031  0.04286536     0.36600
C1304       C  0.35610167  0.93567196  0.48917403     0.36600
C1305       C  0.37089076  0.57672664  0.03182884     0.36600
C1306       C  0.36284869  0.57252294  0.48073327     0.36600
C1307       C  0.36192302  0.99860333  0.11311672    -0.20900
C1308       C  0.36682967  0.52876378  0.10863461    -0.20900
C1309       C  0.35039300  0.98353485  0.41317866    -0.20900
C1310       C  0.35588428  0.51501744  0.41149051    -0.20900
C1311       C  0.35449849  0.90859347  0.03551901    -0.22000
C1312       C  0.35134526  0.90498609  0.50061205    -0.22000
C1313       C  0.36366537  0.60770484  0.02177501    -0.22000
C1314       C  0.35936241  0.60447996  0.48958665    -0.22000
C1315       C  0.35674659  0.95434639  0.07341905    -0.17300
C1316       C  0.36352432  0.56563613  0.06306404    -0.17300
C1317       C  0.35214866  0.55876263  0.45117476    -0.17300
C1318       C  0.34507934  0.94602820  0.45879043    -0.17300
H1319       H  0.35358602  0.98611918  0.13428672     0.15600
H1320       H  0.36170982  0.54571218  0.12789918     0.15600
H1321       H  0.34403505  0.96750465  0.39337772     0.15600
H1322       H  0.35329355  0.52910063  0.38972188     0.15600
H1323       H  0.34864301  0.88959084  0.05231284     0.13900
H1324       H  0.34300960  0.88423903  0.48697594     0.13900
H1325       H  0.35890018  0.62852975  0.03675410     0.13900
H1326       H  0.35056829  0.62429458  0.47528759     0.13900
H1327       H  0.37882400  0.00795273  0.03730637     0.27100
H1328       H  0.35348561  0.00497636  0.48802319     0.27100
N1329       N  0.11743891  0.88483136  0.24663610    -0.02500
C1330       C  0.10798787  0.85612378  0.23312964     0.00100
C1331       C  0.13038698  0.84686153  0.21057483    -0.22800
C1332       C  0.15411046  0.87015938  0.21029366    -0.23000
C1333       C  0.14609107  0.89291296  0.23310423     0.00000
H1334       H  0.12986961  0.82469048  0.19672313     0.13800
H1335       H  0.17519400  0.87037531  0.19539447     0.13800
N1336       N  0.38666472  0.61587622  0.24388032    -0.02500
C1337       C  0.39655785  0.64247651  0.22766920     0.00100
C1338       C  0.37470313  0.64905779  0.20321031    -0.22800
C1339       C  0.35041355  0.62630835  0.20513757    -0.23000
C1340       C  0.35826120  0.60622756  0.23030449     0.00000
H1341       H  0.37606096  0.66863472  0.18626632     0.13800
H1342       H  0.32876116  0.62452056  0.19049963     0.13800
N1343       N  0.12624979  0.62463975  0.25296592    -0.02500
C1344       C  0.11997257  0.65521244  0.24257275     0.00100
C1345       C  0.14733043  0.66863631  0.22916838    -0.22800
C1346       C  0.17106178  0.64614849  0.23148474    -0.23000
C1347       C  0.15765420  0.61880687  0.24511166     0.00000
H1348       H  0.15020100  0.69286661  0.21995648     0.13800
H1349       H  0.19599142  0.64995252  0.22500666     0.13800
N1350       N  0.37860421  0.87686093  0.25334541    -0.02500
C1351       C  0.34825946  0.88387893  0.24239412     0.00100
C1352       C  0.33599131  0.85817464  0.22453618    -0.22800
C1353       C  0.35894394  0.83465008  0.22470407    -0.23000
C1354       C  0.38493469  0.84628270  0.24267491     0.00000
H1355       H  0.31261677  0.85662487  0.21264639     0.13800
H1356       H  0.35685726  0.81136777  0.21285510     0.13800
N1357       N  0.00671771  0.96296230  0.35507645    -0.35600
N1358       N  0.45727336  0.00917926  0.36315748    -0.56200
N1359       N  0.00883819  0.55914698  0.37233848    -0.35600
N1360       N  0.05601017  0.01156848  0.36917452    -0.56200
C1361       C  0.48283567  0.94369402  0.35090435     0.28000
C1362       C  0.03323044  0.94449316  0.35554088     0.28000
C1363       C  0.47844054  0.57594709  0.36537854     0.28000
C1364       C  0.03443608  0.57954064  0.37044533     0.28000
C1365       C  0.43892964  0.98366648  0.35396291     0.36600
C1366       C  0.43755020  0.53110573  0.36012934     0.36600
C1367       C  0.07563500  0.98689329  0.36165809     0.36600
C1368       C  0.07992501  0.53984488  0.37216565     0.36600
C1369       C  0.49309236  0.91238464  0.34653320    -0.20900
C1370       C  0.02446977  0.91252568  0.35028588    -0.20900
C1371       C  0.48661049  0.60808409  0.36117873    -0.20900
C1372       C  0.02354144  0.61052054  0.36470608    -0.20900
C1373       C  0.40732973  0.99277982  0.34918493    -0.22000
C1374       C  0.40707832  0.52043564  0.35047097    -0.22000
C1375       C  0.10710505  0.99778407  0.35961668    -0.22000
C1376       C  0.11190611  0.53263982  0.36614566    -0.22000
C1377       C  0.45136446  0.95392886  0.34399873    -0.17300
C1378       C  0.06483204  0.95619645  0.35117921    -0.17300
C1379       C  0.06662020  0.57023566  0.36459990    -0.17300
C1380       C  0.44872642  0.56264086  0.35445141    -0.17300
H1381       H  0.47850765  0.89155117  0.33995399     0.15600
H1382       H  0.04051057  0.89243111  0.34684675     0.15600
H1383       H  0.47074871  0.62733251  0.35380590     0.15600
H1384       H  0.03804485  0.63186445  0.36044431     0.15600
H1385       H  0.38731333  0.97791093  0.34084697     0.13900
H1386       H  0.38671270  0.53498236  0.34337378     0.13900
H1387       H  0.12807531  0.98405638  0.35329061     0.13900
H1388       H  0.13125462  0.54952166  0.36104926     0.13900
H1389       H  0.00672969  0.98769357  0.35203531     0.27100
H1390       H  0.00987728  0.53444740  0.37502512     0.27100
O1391       O  0.24911022  0.94003843  0.16184566    -0.74300
O1392       O  0.24743279  0.90677308  0.20564616    -0.53200
C1393       C  0.24746220  0.91184348  0.17517374     0.79400
O1394       O  0.34652140  0.55132408  0.24397980    -0.58900
O1395       O  0.30634540  0.58858652  0.24305583    -0.51900
C1396       C  0.33605305  0.58037354  0.24096289     0.71400
O1397       O  0.34188442  0.94162329  0.24891523    -0.73500
O1398       O  0.29785617  0.90825459  0.24949172    -0.54000
C1399       C  0.32852269  0.91332218  0.24815083     0.77400
O1400       O  0.24699195  0.55193994  0.15689416    -0.58600
O1401       O  0.24944153  0.58877957  0.19813872    -0.51700
C1402       C  0.24609970  0.58113776  0.16798901     0.74000
Zr1403     Zr  0.25097352  0.49760312  0.18171880     2.54700
O1404       O  0.29196599  0.49709547  0.14018643    -0.79200
O1405       O  0.20724088  0.49307475  0.14210760    -0.92600
Zr1406     Zr  0.32141248  0.49730472  0.24948065     2.64700
O1407       O  0.35709132  0.49241783  0.20328487    -0.97600
O1408       O  0.36687674  0.49998313  0.28686697    -0.79600
O1409       O  0.28427433  0.96699301  0.21527286    -0.83000
O1410       O  0.28778856  0.52813999  0.21435646    -2.17700
O1411       O  0.16381509  0.56041956  0.25076355    -0.66400
O1412       O  0.20799233  0.59351619  0.24949334    -0.50900
C1413       C  0.17727655  0.58877453  0.24964216     0.72400
O1414       O  0.24809550  0.94734649  0.34378234    -0.59300
O1415       O  0.24629673  0.91153548  0.30181085    -0.51200
C1416       C  0.24536878  0.91835832  0.33209781     0.74200
O1417       O  0.25153988  0.55755586  0.34052939    -0.70700
O1418       O  0.25506963  0.59248313  0.29804877    -0.49300
C1419       C  0.25163570  0.58614231  0.32826084     0.75600
O1420       O  0.15806531  0.94878049  0.24448219    -0.66000
O1421       O  0.19831852  0.91162166  0.24631807    -0.53200
C1422       C  0.16854901  0.91956097  0.24283580     0.74000
Zr1423     Zr  0.18312033  0.00317924  0.25036527     2.77500
O1424       O  0.14531044  0.00254451  0.29484740    -0.96700
O1425       O  0.14045658  0.00643829  0.20963867    -0.77600
Zr1426     Zr  0.25416331  0.00188975  0.31861473     2.70100
O1427       O  0.21937721  0.00441768  0.36564400    -0.78800
O1428       O  0.30195478  0.00389052  0.35300198    -0.97900
Zr1429     Zr  0.24932798  0.94057557  0.25197416     2.21500
Zr1430     Zr  0.25561258  0.56028740  0.24911332     2.11100
O1431       O  0.22058606  0.53266491  0.28520371    -2.46600
O1432       O  0.21623880  0.97209385  0.28614086    -0.78600
O1433       O  0.21884533  0.53097938  0.21545162    -0.70800
O1434       O  0.28697542  0.96908067  0.28532396    -2.31800
O1435       O  0.21536192  0.97030815  0.21634982    -2.28000
O1436       O  0.28996341  0.53043131  0.28442344    -0.72600
H1437       H  0.30061190  0.54144363  0.20021398     0.79400
H1438       H  0.29950487  0.95451869  0.29847650     0.80500
H1439       H  0.20812659  0.54752946  0.29790870     0.82700
H1440       H  0.20179888  0.95636636  0.20315797     0.80400
H1441       H  0.38489039  0.00068671  0.27352853     0.43400
H1442       H  0.31541039  0.48475326  0.34728039     0.42400
H1443       H  0.19762551  0.00844746  0.35648837     0.42000
H1444       H  0.14463900  0.52626464  0.30267687     0.40000
H1445       H  0.14798472  0.48911129  0.19381618     0.43100
H1446       H  0.19936008  0.97113116  0.14035222     0.37900
H1447       H  0.29862144  0.01975487  0.13761679     0.44000
H1448       H  0.34919834  0.47293024  0.19164102     0.40400
H1449       H  0.13841817  0.97970536  0.29636485     0.45300
H1450       H  0.19039980  0.50758616  0.15041754     0.44100
H1451       H  0.35120163  0.51045965  0.18885829     0.44200
H1452       H  0.30453148  0.02714780  0.35789037     0.44600
C1453       C  0.39172830  0.89261478  0.30960089    -0.11300
C1454       C  0.39730633  0.89569100  0.27618034     0.05700
C1455       C  0.42024032  0.91832781  0.26545559    -0.06600
C1456       C  0.43735106  0.93725376  0.28794401    -0.07300
C1457       C  0.43206648  0.93384743  0.32114479    -0.01900
C1458       C  0.40943501  0.91135661  0.33214164     0.04900
N1459       N  0.40363568  0.90881329  0.36604727     0.67400
H1460       H  0.37375087  0.87564315  0.31792793     0.16300
H1461       H  0.45501028  0.95462133  0.27950063     0.16100
N1462       N  0.42644386  0.92243968  0.23181434     0.75200
O1463       O  0.37864577  0.92164215  0.37700220    -0.38300
O1464       O  0.42713132  0.90429463  0.38514081    -0.38200
O1465       O  0.41364799  0.94573384  0.21716822    -0.38900
O1466       O  0.45121765  0.90972656  0.22002871    -0.39000
C1467       C  0.07501104  0.57306762  0.30587238    -0.11300
C1468       C  0.08189277  0.58642452  0.33656126     0.05700
C1469       C  0.10349770  0.61269219  0.33930967    -0.06600
C1470       C  0.11795066  0.62479760  0.31136539    -0.07300
C1471       C  0.11104753  0.61119756  0.28078943    -0.01900
C1472       C  0.08921002  0.58535718  0.27804274     0.04900
N1473       N  0.08134510  0.57126488  0.24731746     0.67400
H1474       H  0.05876545  0.55252230  0.30370323     0.16300
H1475       H  0.13477090  0.64489449  0.31337066     0.16100
N1476       N  0.11143323  0.62693138  0.36997529     0.75200
O1477       O  0.09188776  0.54365077  0.24062985    -0.38300
O1478       O  0.05761796  0.58191098  0.23143497    -0.38200
O1479       O  0.13709578  0.61866236  0.38421705    -0.38900
O1480       O  0.09862202  0.65329482  0.37767739    -0.39000
C1481       C  0.40631171  0.59726082  0.33004350    -0.11300
C1482       C  0.43367169  0.57835410  0.32615287     0.05700
C1483       C  0.44488047  0.57123836  0.29468519    -0.06600
C1484       C  0.42912325  0.58388131  0.26777768    -0.07300
C1485       C  0.40187833  0.60266820  0.27175902    -0.01900
C1486       C  0.39016617  0.60905818  0.30283191     0.04900
N1487       N  0.36269836  0.62875828  0.30686948     0.67400
H1488       H  0.39725042  0.60225650  0.35405876     0.16300
H1489       H  0.43782386  0.57876201  0.24365037     0.16100
N1490       N  0.47167206  0.55051425  0.28965340     0.75200
O1491       O  0.33589205  0.61618593  0.31402090    -0.38300
O1492       O  0.36649934  0.65885943  0.30842606    -0.38200
O1493       O  0.46646760  0.52091586  0.28441055    -0.38900
O1494       O  0.49821366  0.56277099  0.28123611    -0.39000
C1495       C  0.11940481  0.90087241  0.30347377    -0.11300
C1496       C  0.10369762  0.90157585  0.27325224     0.05700
C1497       C  0.07795935  0.92262699  0.26814582    -0.06600
C1498       C  0.06762428  0.94195466  0.29352317    -0.07300
C1499       C  0.08206383  0.94009725  0.32441981    -0.01900
C1500       C  0.10867658  0.91987952  0.32918341     0.04900
N1501       N  0.12444148  0.91772356  0.35991776     0.67400
H1502       H  0.14005094  0.88542780  0.30695348     0.16300
H1503       H  0.04724657  0.95767602  0.28951263     0.16100
N1504       N  0.06240032  0.92497970  0.23722730     0.75200
O1505       O  0.11253736  0.89959202  0.38111228    -0.38300
O1506       O  0.15336701  0.92711735  0.36293137    -0.38200
O1507       O  0.03480181  0.91240572  0.23324798    -0.38900
O1508       O  0.07176958  0.94634052  0.21772517    -0.39000
C1509       C  0.26434263  0.92232300  0.42192138    -0.11300
C1510       C  0.27361472  0.89779306  0.40104805     0.05700
C1511       C  0.30546247  0.88648871  0.40213543    -0.06600
C1512       C  0.32826570  0.90140610  0.42229670    -0.07300
C1513       C  0.31952455  0.92717634  0.44190572    -0.01900
C1514       C  0.28665566  0.93631367  0.44359543     0.04900
N1515       N  0.27519486  0.95756708  0.46851441     0.67400
H1516       H  0.23918818  0.92903774  0.42250348     0.16300
H1517       H  0.35285426  0.89285065  0.42275799     0.16100
N1518       N  0.31478420  0.85940862  0.38333244     0.75200
O1519       O  0.24796127  0.97063449  0.46559910    -0.38300
O1520       O  0.28875073  0.95796972  0.49595694    -0.38200
O1521       O  0.32508598  0.86386176  0.35506800    -0.38900
O1522       O  0.32037784  0.83314292  0.39748477    -0.39000
C1523       C  0.27391892  0.57906986  0.40767935    -0.11300
C1524       C  0.28140278  0.60891819  0.39462573     0.05700
C1525       C  0.31207067  0.62266329  0.40052832    -0.06600
C1526       C  0.33559645  0.60524764  0.41705250    -0.07300
C1527       C  0.32788286  0.57568572  0.43099484    -0.01900
C1528       C  0.29644882  0.56260758  0.42615675     0.04900
N1529       N  0.28638163  0.53300903  0.44030888     0.67400
H1530       H  0.24992144  0.56892792  0.40426809     0.16300
H1531       H  0.35956549  0.61553189  0.42020950     0.16100
N1532       N  0.31939059  0.65485337  0.39180920     0.75200
O1533       O  0.27023994  0.53435656  0.46595365    -0.38300
O1534       O  0.28248132  0.50892124  0.42187672    -0.38200
O1535       O  0.31849736  0.67599732  0.41381199    -0.38900
O1536       O  0.33804086  0.65919561  0.36837677    -0.39000
C1537       C  0.33659670  0.60884268  0.09422575    -0.11300
C1538       C  0.33441005  0.57968966  0.07760219     0.05700
C1539       C  0.30418357  0.56380211  0.07429144    -0.06600
C1540       C  0.27705330  0.57668742  0.08872477    -0.07300
C1541       C  0.27910142  0.60624616  0.10453098    -0.01900
C1542       C  0.30889146  0.62279897  0.10650390     0.04900
N1543       N  0.31096983  0.65496975  0.11805497     0.67400
H1544       H  0.35955266  0.62145806  0.09633028     0.16300
H1545       H  0.25401413  0.56424250  0.08661945     0.16100
N1546       N  0.30045586  0.53501338  0.05563207     0.75200
O1547       O  0.32226923  0.66016277  0.14601273    -0.38300
O1548       O  0.31265270  0.67703042  0.09732673    -0.38200
O1549       O  0.29252968  0.50939150  0.06983518    -0.38900
O1550       O  0.29523629  0.53729888  0.02561601    -0.39000
C1551       C  0.30935586  0.89955400  0.12964950    -0.11300
C1552       C  0.28016569  0.89695468  0.11184391     0.05700
C1553       C  0.27483496  0.91785233  0.08599247    -0.06600
C1554       C  0.29969883  0.93807902  0.07605712    -0.07300
C1555       C  0.32999503  0.93867813  0.09167320    -0.01900
C1556       C  0.33417505  0.92101926  0.12051317     0.04900
N1557       N  0.36304583  0.92377513  0.14025013     0.67400
H1558       H  0.31248790  0.88483594  0.15102961     0.16300
H1559       H  0.29581573  0.95267051  0.05498522     0.16100
N1560       N  0.24412436  0.91962291  0.07018401     0.75200
O1561       O  0.36261775  0.91515926  0.16953352    -0.38300
O1562       O  0.38949267  0.93293747  0.12833182    -0.38200
O1563       O  0.22517855  0.94178378  0.07824438    -0.38900
O1564       O  0.24032379  0.90627360  0.04288892    -0.39000
C1565       C  0.41018888  0.82763184  0.40282554    -0.11300
C1566       C  0.42685515  0.82097461  0.43165186     0.05700
C1567       C  0.42783807  0.78876657  0.44293833    -0.06600
C1568       C  0.41301706  0.76421229  0.42495715    -0.07300
C1569       C  0.39732868  0.77109919  0.39598633    -0.01900
C1570       C  0.39594260  0.80289404  0.38457564     0.04900
N1571       N  0.38131091  0.80998170  0.35386357     0.67400
H1572       H  0.40830143  0.85186661  0.39433226     0.16300
H1573       H  0.41324628  0.73968069  0.43382202     0.16100
N1574       N  0.44224999  0.78058586  0.47333508     0.75200
O1575       O  0.39902822  0.81802688  0.33055405    -0.38300
O1576       O  0.35227033  0.80225513  0.34823857    -0.38200
O1577       O  0.42433964  0.77945400  0.49775865    -0.38900
O1578       O  0.46731801  0.76370258  0.47344640    -0.39000
C1579       C  0.07550123  0.76879219  0.40804160    -0.11300
C1580       C  0.10508006  0.77590338  0.39413636     0.05700
C1581       C  0.11797259  0.80731266  0.39690099    -0.06600
C1582       C  0.10152927  0.83093509  0.41375798    -0.07300
C1583       C  0.07217107  0.82401190  0.42808540    -0.01900
C1584       C  0.05892677  0.79252458  0.42493636     0.04900
N1585       N  0.02935106  0.78370343  0.43974633     0.67400
H1586       H  0.06551134  0.74461401  0.40611682     0.16300
H1587       H  0.11234929  0.85451771  0.41676248     0.16100
N1588       N  0.14835416  0.81554995  0.38369803     0.75200
O1589       O  0.03072907  0.76854587  0.46608326    -0.38300
O1590       O  0.00458336  0.78041463  0.42197257    -0.38200
O1591       O  0.14909906  0.82811445  0.35594041    -0.38900
O1592       O  0.17146360  0.82058932  0.40322899    -0.39000
C1593       C  0.43833003  0.79347330  0.06958300    -0.11300
C1594       C  0.43154135  0.82447816  0.08132298     0.05700
C1595       C  0.40892056  0.82791030  0.10590676    -0.06600
C1596       C  0.39226569  0.80115771  0.11725549    -0.07300
C1597       C  0.39839233  0.77044293  0.10509438    -0.01900
C1598       C  0.42237163  0.76630214  0.08174815     0.04900
N1599       N  0.43115975  0.73501432  0.07066041     0.67400
H1600       H  0.45558304  0.79053935  0.05034714     0.16300
H1601       H  0.37401506  0.80428049  0.13558491     0.16100
N1602       N  0.39957839  0.85866204  0.11685487     0.75200
O1603       O  0.45654927  0.72253126  0.08178997    -0.38300
O1604       O  0.41935193  0.72443523  0.04435301    -0.38200
O1605       O  0.40895763  0.86806651  0.14454394    -0.38900
O1606       O  0.37397761  0.86968820  0.10491463    -0.39000
C1607       C  0.10558211  0.83504476  0.09296352    -0.11300
C1608       C  0.07518749  0.82975656  0.07873967     0.05700
C1609       C  0.06198757  0.79822260  0.07760908    -0.06600
C1610       C  0.07873960  0.77303602  0.09153646    -0.07300
C1611       C  0.10871834  0.77825194  0.10631356    -0.01900
C1612       C  0.12277125  0.80928814  0.10617123     0.04900
N1613       N  0.15490308  0.81478904  0.11749278     0.67400
H1614       H  0.11627246  0.85898433  0.09304964     0.16300
H1615       H  0.06829335  0.74898504  0.09088877     0.16100
N1616       N  0.03125756  0.79135589  0.06297271     0.75200
O1617       O  0.15928337  0.82688460  0.14524299    -0.38300
O1618       O  0.17682549  0.81789186  0.09682059    -0.38200
O1619       O  0.03002078  0.77783508  0.03559423    -0.38900
O1620       O  0.00712481  0.78891304  0.08102537    -0.39000
O1621       O  0.34175585  0.74736866  0.55585567    -0.74300
O1622       O  0.29852920  0.74770698  0.58946180    -0.53200
C1623       C  0.32895625  0.74644276  0.58428217     0.79400
O1624       O  0.24570758  0.84310681  0.94778640    -0.58900
O1625       O  0.24636296  0.80193172  0.91091701    -0.51900
C1626       C  0.24403129  0.83189183  0.91854332     0.71400
O1627       O  0.25099514  0.84103055  0.55759611    -0.73500
O1628       O  0.25047730  0.79742834  0.59070484    -0.54000
C1629       C  0.25076600  0.82795777  0.58601983     0.77400
O1630       O  0.34135057  0.74677084  0.94399170    -0.58600
O1631       O  0.29926209  0.75039988  0.90833283    -0.51700
C1632       C  0.32935926  0.74709486  0.91476288     0.74000
Zr1633     Zr  0.31844610  0.74952687  0.00015082     2.54700
O1634       O  0.35486225  0.79515789  0.00251963    -0.79200
O1635       O  0.36125166  0.70974622  0.00066215    -0.92600
Zr1636     Zr  0.25006782  0.81870737  0.00224674     2.64700
O1637       O  0.29100718  0.86063527  0.00130643    -0.97600
O1638       O  0.20659877  0.85766639  0.00472276    -0.79600
O1639       O  0.28434639  0.78385771  0.53119026    -0.83000
O1640       O  0.28528852  0.78587325  0.97063530    -2.17700
O1641       O  0.24703395  0.65974965  0.94247448    -0.66400
O1642       O  0.24627105  0.70231424  0.90759845    -0.50900
C1643       C  0.24520745  0.67198114  0.91383332     0.72400
O1644       O  0.15770929  0.74188874  0.55173041    -0.59300
O1645       O  0.19877224  0.74323236  0.58901041    -0.51200
C1646       C  0.16875254  0.74058331  0.58102258     0.74200
O1647       O  0.16095181  0.74969957  0.93954786    -0.70700
O1648       O  0.20407461  0.75127871  0.90583557    -0.49300
C1649       C  0.17381320  0.74958421  0.91102185     0.75600
O1650       O  0.24677635  0.65814982  0.55462885    -0.66000
O1651       O  0.24561745  0.70014266  0.59042010    -0.53200
C1652       C  0.24507016  0.66993294  0.58366081     0.74000
Zr1653     Zr  0.24929313  0.68096642  0.49897239     2.77500
O1654       O  0.20589082  0.64096909  0.49796123    -0.96700
O1655       O  0.29134822  0.64053838  0.49932194    -0.77600
Zr1656     Zr  0.18115782  0.74887056  0.49754931     2.70100
O1657       O  0.13968895  0.70692248  0.49545546    -0.78800
O1658       O  0.14176435  0.79170153  0.49926259    -0.97900
Zr1659     Zr  0.24880873  0.74878285  0.55909057     2.21500
Zr1660     Zr  0.25080185  0.75141467  0.93950527     2.11100
O1661       O  0.21488864  0.71577496  0.96686709    -2.46600
O1662       O  0.21896773  0.71891523  0.52393961    -0.78600
O1663       O  0.28439304  0.71512962  0.96831636    -0.70800
O1664       O  0.21398454  0.78400681  0.53032168    -2.31800
O1665       O  0.28439424  0.71453925  0.53028438    -2.28000
O1666       O  0.21588589  0.78588738  0.96851042    -0.72600
H1667       H  0.29835038  0.79924382  0.95674473     0.79400
H1668       H  0.20072441  0.79633806  0.54476300     0.80500
H1669       H  0.20171892  0.70308986  0.95206322     0.82700
H1670       H  0.29698471  0.70138821  0.54450896     0.80400
H1671       H  0.18683633  0.84551066  0.50524143     0.43400
H1672       H  0.13628096  0.79890804  0.98115952     0.42400
H1673       H  0.14957613  0.68830443  0.50652436     0.42000
H1674       H  0.19140971  0.64672855  0.97999785     0.40000
H1675       H  0.28409830  0.62456062  0.98463825     0.43100
H1676       H  0.37809585  0.71803374  0.48696864     0.37900
H1677       H  0.34293643  0.81255993  0.51030357     0.44000
H1678       H  0.27940040  0.88021157  0.99440922     0.40400
H1679       H  0.19390309  0.64460873  0.51823734     0.45300
H1680       H  0.35521070  0.69451788  0.01801940     0.44100
H1681       H  0.29673125  0.86468207  0.02431717     0.44200
H1682       H  0.13604934  0.79364872  0.52240685     0.44600
N1683       N  0.12443247  0.75243748  0.62156478    -0.02500
C1684       C  0.11057576  0.73513011  0.64571058     0.00100
C1685       C  0.12372422  0.70476052  0.64711401    -0.22800
C1686       C  0.14576284  0.70303652  0.62252531    -0.23000
C1687       C  0.14620535  0.73265504  0.60751926     0.00000
H1688       H  0.11680988  0.68541103  0.66318408     0.13800
H1689       H  0.15849014  0.68179738  0.61499535     0.13800
N1690       N  0.38081174  0.74444125  0.61938253    -0.02500
C1691       C  0.38582726  0.73583485  0.65082590     0.00100
C1692       C  0.35716412  0.72660676  0.66493827    -0.22800
C1693       C  0.33376404  0.72945081  0.64192631    -0.23000
C1694       C  0.34852003  0.74012219  0.61404162     0.00000
H1695       H  0.35316714  0.72065252  0.69008467     0.13800
H1696       H  0.30829085  0.72492958  0.64551278     0.13800
N1697       N  0.12351600  0.75264846  0.87472392    -0.02500
C1698       C  0.15426226  0.74382385  0.88119734     0.00100
C1699       C  0.16695257  0.72879630  0.85430196    -0.22800
C1700       C  0.14284776  0.72664576  0.83151388    -0.23000
C1701       C  0.11633577  0.74159486  0.84459742     0.00000
H1702       H  0.19163967  0.72154834  0.85096201     0.13800
H1703       H  0.14493545  0.71663701  0.80735617     0.13800
N1704       N  0.38092559  0.74723480  0.87973171    -0.02500
C1705       C  0.34936965  0.73982239  0.88547768     0.00100
C1706       C  0.33539774  0.72718178  0.85761154    -0.22800
C1707       C  0.35890624  0.72586971  0.83469117    -0.23000
C1708       C  0.38704660  0.73802590  0.84859674     0.00000
H1709       H  0.31035947  0.72028454  0.85398047     0.13800
H1710       H  0.35520832  0.71851152  0.80973178     0.13800
N1711       N  0.44987378  0.86644894  0.00670251    -0.35600
N1712       N  0.00322418  0.86751785  0.55500392    -0.56200
N1713       N  0.04697847  0.85850699  0.00439491    -0.35600
N1714       N  0.99743039  0.85957187  0.95478246    -0.56200
C1715       C  0.43625845  0.85614411  0.53314938     0.28000
C1716       C  0.43050024  0.85872322  0.98109427     0.28000
C1717       C  0.07132303  0.86382097  0.52964781     0.28000
C1718       C  0.06525432  0.85489805  0.97793337     0.28000
C1719       C  0.47921848  0.86166570  0.57561769     0.36600
C1720       C  0.03004499  0.86603429  0.57362074     0.36600
C1721       C  0.47115047  0.85838747  0.93698516     0.36600
C1722       C  0.02251857  0.85183196  0.93588182     0.36600
C1723       C  0.40467491  0.84925413  0.52423586    -0.20900
C1724       C  0.40003274  0.85117417  0.99183384    -0.20900
C1725       C  0.10216635  0.85656847  0.51950790    -0.20900
C1726       C  0.09758718  0.85681776  0.98631569    -0.20900
C1727       C  0.48982162  0.85905712  0.60734575    -0.22000
C1728       C  0.02164849  0.86148005  0.60573160    -0.22000
C1729       C  0.47991324  0.85217140  0.90525137    -0.22000
C1730       C  0.01212901  0.84656997  0.90439115    -0.22000
C1731       C  0.44894626  0.85030775  0.56432386    -0.17300
C1732       C  0.44058190  0.85086303  0.94947651    -0.17300
C1733       C  0.05352735  0.84462239  0.94765230    -0.17300
C1734       C  0.06062528  0.85803723  0.56153916    -0.17300
H1735       H  0.38518624  0.84250525  0.54008783     0.15600
H1736       H  0.37961855  0.84374407  0.97699112     0.15600
H1737       H  0.12310504  0.85141331  0.53433211     0.15600
H1738       H  0.11795717  0.85384117  0.97044580     0.15600
H1739       H  0.47576002  0.85201019  0.62809855     0.13900
H1740       H  0.03781431  0.85724780  0.62601336     0.13900
H1741       H  0.46425120  0.84672152  0.88481634     0.13900
H1742       H  0.02617160  0.83940106  0.88377842     0.13900
H1743       H  0.47397728  0.87283403  0.00599043     0.27100
H1744       H  0.02287570  0.85194645  0.00567676     0.27100
O1745       O  0.05504227  0.74608497  0.65639784    -0.74300
O1746       O  0.09212018  0.74876979  0.69757765    -0.53200
C1747       C  0.08428736  0.74528641  0.66755843     0.79400
O1748       O  0.44242095  0.83864300  0.75093177    -0.58900
O1749       O  0.40898293  0.79472298  0.74982207    -0.51900
C1750       C  0.41408269  0.82540655  0.74979454     0.71400
O1751       O  0.05228587  0.84370260  0.74593490    -0.73500
O1752       O  0.08936726  0.80373365  0.74289924    -0.54000
C1753       C  0.08146110  0.83363667  0.74288061     0.77400
O1754       O  0.44357126  0.74289335  0.65829350    -0.58600
O1755       O  0.40971452  0.74388007  0.70130313    -0.51700
C1756       C  0.41520042  0.74160461  0.67096760     0.74000
Zr1757     Zr  0.49947194  0.74918010  0.67993196     2.54700
O1758       O  0.50040260  0.79310361  0.64143066    -0.79200
O1759       O  0.49681742  0.70787148  0.63787689    -0.92600
Zr1760     Zr  0.49816340  0.81752718  0.74853955     2.64700
O1761       O  0.99798281  0.85439815  0.70381140    -0.97600
O1762       O  0.49794332  0.85863612  0.79074854    -0.79600
O1763       O  0.02593254  0.78110061  0.71694406    -0.83000
O1764       O  0.46742780  0.78292757  0.71333700    -2.17700
O1765       O  0.45142246  0.65543722  0.74137007    -0.66400
O1766       O  0.41397290  0.69533986  0.74196367    -0.50900
C1767       C  0.42226148  0.66573991  0.73889557     0.72400
O1768       O  0.05857129  0.74645781  0.83797631    -0.59300
O1769       O  0.09263477  0.75137127  0.79515298    -0.51200
C1770       C  0.08698050  0.74748903  0.82520791     0.74200
O1771       O  0.44550726  0.74648285  0.84078562    -0.70700
O1772       O  0.41063953  0.74352409  0.79788950    -0.49300
C1773       C  0.41661424  0.74365772  0.82841207     0.75600
O1774       O  0.06251463  0.66050093  0.74783723    -0.66000
O1775       O  0.09482207  0.70519154  0.74660066    -0.53200
C1776       C  0.09056337  0.67446107  0.74664297     0.74000
Zr1777     Zr  0.00567965  0.67986024  0.74849227     2.77500
O1778       O  0.00592442  0.64249103  0.79359331    -0.96700
O1779       O  0.00994249  0.63682943  0.70855649    -0.77600
Zr1780     Zr  0.00200583  0.74834716  0.81716933     2.70100
O1781       O  0.00524451  0.70659988  0.85826057    -0.78800
O1782       O  0.99899575  0.79041217  0.85772498    -0.97900
Zr1783     Zr  0.06123547  0.75247017  0.74695638     2.21500
Zr1784     Zr  0.44168750  0.74652230  0.74944271     2.11100
O1785       O  0.47241017  0.71254528  0.78408790    -2.46600
O1786       O  0.03483017  0.71617301  0.78283063    -0.78600
O1787       O  0.47193577  0.71295694  0.71460111    -0.70800
O1788       O  0.03181961  0.78529503  0.78395647    -2.31800
O1789       O  0.03305068  0.71529221  0.71286888    -2.28000
O1790       O  0.47383128  0.77925595  0.77984031    -0.72600
H1791       H  0.45213168  0.79489075  0.70045940     0.79400
H1792       H  0.04591614  0.79892498  0.79693839     0.80500
H1793       H  0.45872119  0.69872287  0.79689466     0.82700
H1794       H  0.04739455  0.70266525  0.69976592     0.80400
H1795       H  0.01735299  0.85321691  0.80475271     0.43400
H1796       H  0.49921709  0.81386406  0.84153399     0.42400
H1797       H  0.00996392  0.68667407  0.84599093     0.42000
H1798       H  0.48410579  0.63032157  0.79062674     0.40000
H1799       H  0.49831411  0.62021737  0.71643691     0.43100
H1800       H  0.01471669  0.69068894  0.64565524     0.37900
H1801       H  0.97871909  0.79107811  0.63075695     0.44000
H1802       H  0.51162505  0.84609660  0.68734867     0.40400
H1803       H  0.02893195  0.63730472  0.79716194     0.45300
H1804       H  0.50969402  0.71669818  0.61985157     0.44100
H1805       H  0.47446133  0.84973484  0.69218576     0.44200
H1806       H  0.99686684  0.77872607  0.87846761     0.44600
N1807       N  0.25422005  0.87843964  0.62401578    -0.02500
C1808       C  0.24394210  0.88299977  0.65488215     0.00100
C1809       C  0.23150536  0.85479575  0.66729309    -0.22800
C1810       C  0.23306502  0.83232248  0.64329141    -0.23000
C1811       C  0.24665888  0.84704857  0.61658098     0.00000
H1812       H  0.22334671  0.85052131  0.69170331     0.13800
H1813       H  0.22526666  0.80743771  0.64534127     0.13800
N1814       N  0.25291813  0.61969508  0.61894768    -0.02500
C1815       C  0.23915915  0.64846397  0.61177946     0.00100
C1816       C  0.21793991  0.65666406  0.63581709    -0.22800
C1817       C  0.21696112  0.63145705  0.65702102    -0.23000
C1818       C  0.23895317  0.60914384  0.64673827     0.00000
H1819       H  0.20556214  0.67919555  0.63846646     0.13800
H1820       H  0.20242379  0.62978434  0.67829816     0.13800
N1821       N  0.25667788  0.62491640  0.87601232    -0.03700
C1822       C  0.23906970  0.65052629  0.88570011     0.00100
C1823       C  0.21339786  0.65482526  0.86472174    -0.22800
C1824       C  0.21552353  0.63171839  0.84097210    -0.23000
C1825       C  0.24205001  0.61333338  0.84858776     0.00000
H1826       H  0.19407325  0.67162609  0.86752467     0.13800
H1827       H  0.19880578  0.62794178  0.82094534     0.13800
N1828       N  0.24835368  0.88314338  0.88427878    -0.02500
C1829       C  0.23509478  0.89215543  0.85537287     0.00100
C1830       C  0.21429934  0.86806792  0.84436718    -0.22800
C1831       C  0.21506202  0.84374961  0.86670545    -0.23000
C1832       C  0.23589003  0.85351505  0.89113422     0.00000
H1833       H  0.20110185  0.86753806  0.82159568     0.13800
H1834       H  0.20267844  0.82073640  0.86486508     0.13800
N1835       N  0.37603616  0.00784120  0.56055829    -0.35600
N1836       N  0.36480864  0.95739795  0.01532826    -0.56200
N1837       N  0.35828989  0.00441774  0.96480287    -0.35600
N1838       N  0.37294427  0.55705409  0.00589555    -0.56200
C1839       C  0.36768385  0.98364404  0.58087590     0.28000
C1840       C  0.37375958  0.53487664  0.57754054     0.28000
C1841       C  0.35383564  0.97724211  0.94737929     0.28000
C1842       C  0.36111693  0.52924655  0.94123609     0.28000
C1843       C  0.36415080  0.93832701  0.54079911     0.36600
C1844       C  0.35505778  0.93741934  0.99122206     0.36600
C1845       C  0.37257591  0.57506605  0.53219067     0.36600
C1846       C  0.36322810  0.57447993  0.98008270     0.36600
C1847       C  0.36286697  0.99605339  0.61161927    -0.20900
C1848       C  0.36770790  0.52833001  0.60982506    -0.20900
C1849       C  0.35230658  0.98430007  0.91471570    -0.20900
C1850       C  0.36000594  0.51818723  0.90961043    -0.20900
C1851       C  0.35624073  0.90657523  0.53331524    -0.22000
C1852       C  0.34981324  0.90691472  0.00279076    -0.22000
C1853       C  0.36605891  0.60617061  0.52198960    -0.22000
C1854       C  0.35845164  0.60621179  0.98913022    -0.22000
C1855       C  0.35827099  0.95206397  0.57150121    -0.17300
C1856       C  0.36502056  0.56450612  0.56356932    -0.17300
C1857       C  0.35373355  0.56081372  0.95009304    -0.17300
C1858       C  0.34476584  0.94761450  0.96057275    -0.17300
H1859       H  0.35459931  0.98346065  0.63277440     0.15600
H1860       H  0.36225707  0.54558596  0.62871144     0.15600
H1861       H  0.34659608  0.96793693  0.89506245     0.15600
H1862       H  0.35757436  0.53264936  0.88803506     0.15600
H1863       H  0.35043992  0.88751960  0.55006027     0.13900
H1864       H  0.34165017  0.88619864  0.98906009     0.13900
H1865       H  0.36248784  0.62727593  0.53694218     0.13900
H1866       H  0.34978313  0.62595519  0.97465753     0.13900
H1867       H  0.37967807  0.00615895  0.53584810     0.27100
H1868       H  0.35339920  0.00665771  0.98927204     0.27100
N1869       N  0.11828401  0.88416246  0.74954305    -0.02500
C1870       C  0.10806694  0.85644917  0.73446561     0.00100
C1871       C  0.12953149  0.84852146  0.71050993    -0.22800
C1872       C  0.15336601  0.87171721  0.71073797    -0.23000
C1873       C  0.14627453  0.89311485  0.73517649     0.00000
H1874       H  0.12821769  0.82733966  0.69519917     0.13800
H1875       H  0.17385955  0.87282091  0.69497558     0.13800
N1876       N  0.38664217  0.61610969  0.74534305    -0.02500
C1877       C  0.39602532  0.64303827  0.72943403     0.00100
C1878       C  0.37404791  0.64971192  0.70515740    -0.22800
C1879       C  0.35018912  0.62654297  0.70673483    -0.23000
C1880       C  0.35846292  0.60615159  0.73154502     0.00000
H1881       H  0.37513855  0.66952894  0.68847527     0.13800
H1882       H  0.32852812  0.62472499  0.69207722     0.13800
N1883       N  0.12692745  0.62443891  0.75216257    -0.02500
C1884       C  0.12076397  0.65531214  0.74259227     0.00100
C1885       C  0.14840615  0.66929657  0.73034189    -0.22800
C1886       C  0.17215431  0.64681745  0.73239640    -0.23000
C1887       C  0.15850595  0.61898393  0.74474911     0.00000
H1888       H  0.15141885  0.69384189  0.72204672     0.13800
H1889       H  0.19722685  0.65095912  0.72670155     0.13800
N1890       N  0.37855982  0.87621672  0.75492541    -0.02500
C1891       C  0.34779404  0.88280210  0.74494130     0.00100
C1892       C  0.33501477  0.85660506  0.72820460    -0.22800
C1893       C  0.35807069  0.83321098  0.72814716    -0.23000
C1894       C  0.38462914  0.84542629  0.74486359     0.00000
H1895       H  0.31124805  0.85464459  0.71719573     0.13800
H1896       H  0.35563797  0.80959343  0.71705511     0.13800
N1897       N  0.00922439  0.96073073  0.85958445    -0.35600
N1898       N  0.45715265  0.00797751  0.86390183    -0.56200
N1899       N  0.00981767  0.55784858  0.87238242    -0.35600
N1900       N  0.05842830  0.01017435  0.87226087    -0.56200
C1901       C  0.48429470  0.94303761  0.85279889     0.28000
C1902       C  0.03582330  0.94242370  0.86210676     0.28000
C1903       C  0.48258987  0.57458995  0.86384677     0.28000
C1904       C  0.03569166  0.57772053  0.86932408     0.28000
C1905       C  0.43962871  0.98217068  0.85397895     0.36600
C1906       C  0.44129173  0.53032112  0.85791999     0.36600
C1907       C  0.07806625  0.98540571  0.86478212     0.36600
C1908       C  0.08042744  0.53716374  0.87006853     0.36600
C1909       C  0.49480700  0.91159180  0.85110391    -0.20900
C1910       C  0.02717291  0.91019814  0.85846309    -0.20900
C1911       C  0.49139744  0.60655233  0.85965918    -0.20900
C1912       C  0.02523423  0.60881315  0.86340627    -0.20900
C1913       C  0.40794049  0.99061181  0.84838109    -0.22000
C1914       C  0.41071702  0.52022850  0.84792667    -0.22000
C1915       C  0.10901347  0.99676463  0.85976726    -0.22000
C1916       C  0.11219966  0.52950081  0.86371983    -0.22000
C1917       C  0.45291443  0.95261534  0.84463297    -0.17300
C1918       C  0.06743211  0.95389001  0.85666920    -0.17300
C1919       C  0.06754827  0.56779058  0.86285630    -0.17300
C1920       C  0.45257938  0.56191439  0.85305607    -0.17300
H1921       H  0.48058486  0.89034242  0.84514010     0.15600
H1922       H  0.04334616  0.88999427  0.85659185     0.15600
H1923       H  0.47601100  0.62610163  0.85208660     0.15600
H1924       H  0.04002809  0.62981942  0.85851503     0.15600
H1925       H  0.38845514  0.97539986  0.83942372     0.13900
H1926       H  0.39034350  0.53516818  0.84177849     0.13900
H1927       H  0.12965447  0.98327753  0.85211088     0.13900
H1928       H  0.13172365  0.54604408  0.85823102     0.13900
H1929       H  0.00930562  0.98517811  0.85483917     0.27100
H1930       H  0.01046188  0.53319734  0.87569593     0.27100
O1931       O  0.24937241  0.94062010  0.66185108    -0.74300
O1932       O  0.24778608  0.90731661  0.70565978    -0.53200
C1933       C  0.24779137  0.91243216  0.67509473     0.79400
O1934       O  0.34700497  0.55083028  0.74372560    -0.58900
O1935       O  0.30689846  0.58816160  0.74426564    -0.51900
C1936       C  0.33654767  0.57997422  0.74177379     0.71400
O1937       O  0.34176030  0.94065255  0.75042462    -0.73500
O1938       O  0.29758383  0.90753256  0.75188029    -0.54000
C1939       C  0.32825611  0.91242162  0.75029234     0.77400
O1940       O  0.24799075  0.55250460  0.65642092    -0.58600
O1941       O  0.25153544  0.58885984  0.69806742    -0.51700
C1942       C  0.24793435  0.58158049  0.66789062     0.74000
Zr1943     Zr  0.25131178  0.49783265  0.68045706     2.54700
O1944       O  0.29355439  0.49668398  0.64021808    -0.79200
O1945       O  0.20936603  0.49503406  0.63870534    -0.92600
Zr1946     Zr  0.32160404  0.49683214  0.74793130     2.64700
O1947       O  0.35545186  0.49413375  0.70023512    -0.97600
O1948       O  0.36758739  0.49898805  0.78458545    -0.79600
O1949       O  0.28429326  0.96641825  0.71609625    -0.83000
O1950       O  0.28806856  0.52816729  0.71338884    -2.17700
O1951       O  0.16448112  0.56054411  0.74987667    -0.66400
O1952       O  0.20876422  0.59347537  0.74867774    -0.50900
C1953       C  0.17804636  0.58885015  0.74884100     0.72400
O1954       O  0.24809369  0.94860184  0.84499890    -0.59300
O1955       O  0.24443872  0.91209324  0.80364516    -0.51200
C1956       C  0.24401806  0.91958237  0.83385470     0.74200
O1957       O  0.25152660  0.55697669  0.84007221    -0.70700
O1958       O  0.25501916  0.59209737  0.79781294    -0.49300
C1959       C  0.25150607  0.58567436  0.82801344     0.75600
O1960       O  0.15853975  0.94884826  0.74679111    -0.66000
O1961       O  0.19859652  0.91144837  0.74781197    -0.53200
C1962       C  0.16886177  0.91957337  0.74492229     0.74000
Zr1963     Zr  0.18349421  0.00352572  0.75118896     2.77500
O1964       O  0.14341828  0.00277623  0.79375863    -0.96700
O1965       O  0.14378051  0.00690302  0.70750937    -0.77600
Zr1966     Zr  0.25470084  0.00266756  0.81939300     2.70100
O1967       O  0.21928288  0.00421155  0.86598062    -0.78800
O1968       O  0.30208224  0.00563020  0.85429189    -0.97900
Zr1969     Zr  0.24943117  0.94035102  0.75315469     2.21500
Zr1970     Zr  0.25609943  0.55995084  0.74872521     2.11100
O1971       O  0.22086525  0.53232148  0.78451221    -2.46600
O1972       O  0.21681238  0.97277897  0.78697873    -0.78600
O1973       O  0.21932668  0.53104423  0.71461753    -0.70800
O1974       O  0.28717004  0.96899847  0.78643571    -2.31800
O1975       O  0.21571741  0.97038807  0.71752246    -2.28000
O1976       O  0.29071035  0.52992114  0.78344426    -0.72600
H1977       H  0.30103336  0.54158125  0.69946838     0.79400
H1978       H  0.29960139  0.95454039  0.79980038     0.80500
H1979       H  0.20841107  0.54710502  0.79731691     0.82700
H1980       H  0.20204487  0.95645238  0.70442591     0.80400
H1981       H  0.38499380  0.99448304  0.77440473     0.43400
H1982       H  0.30435324  0.47952282  0.86135990     0.42400
H1983       H  0.19749548  0.99985219  0.85680538     0.42000
H1984       H  0.13351562  0.52327357  0.79209191     0.40000
H1985       H  0.15227261  0.49886197  0.68914434     0.43100
H1986       H  0.21732872  0.00171131  0.62066950     0.37900
H1987       H  0.29275063  0.97835955  0.63136485     0.44000
H1988       H  0.37780668  0.49561991  0.70877844     0.40400
H1989       H  0.12647998  0.98751129  0.78602833     0.45300
H1990       H  0.19705581  0.47502441  0.64325884     0.44100
H1991       H  0.35305580  0.47167602  0.69235583     0.44200
H1992       H  0.32058621  0.00572036  0.83934608     0.44600
C1993       C  0.39195724  0.89245251  0.81083274    -0.11300
C1994       C  0.39762840  0.89501489  0.77742323     0.05700
C1995       C  0.42160005  0.91642670  0.76647535    -0.06600
C1996       C  0.43964630  0.93466388  0.78881729    -0.07300
C1997       C  0.43422084  0.93174984  0.82204236    -0.01900
C1998       C  0.41051733  0.91048225  0.83320248     0.04900
N1999       N  0.40427451  0.90875343  0.86706409     0.67400
H2000       H  0.37320973  0.87641519  0.81928989     0.16300
H2001       H  0.45785126  0.95138386  0.78022554     0.16100
N2002       N  0.42772374  0.92020075  0.73277862     0.75200
O2003       O  0.37906198  0.92160364  0.87746963    -0.38300
O2004       O  0.42736654  0.90408275  0.88660468    -0.38200
O2005       O  0.41574564  0.94394959  0.71816875    -0.38900
O2006       O  0.45194372  0.90657158  0.72088493    -0.39000
C2007       C  0.07531917  0.57210450  0.80405432    -0.11300
C2008       C  0.08299107  0.58425896  0.83506426     0.05700
C2009       C  0.10508255  0.61005334  0.83832579    -0.06600
C2010       C  0.11929115  0.62285867  0.81058909    -0.07300
C2011       C  0.11170203  0.61041568  0.77968988    -0.01900
C2012       C  0.08931191  0.58509273  0.77641411     0.04900
N2013       N  0.08065924  0.57224097  0.74535570     0.67400
H2014       H  0.05860690  0.55199000  0.80146335     0.16300
H2015       H  0.13646899  0.64261115  0.81300690     0.16100
N2016       N  0.11362007  0.62322948  0.86930031     0.75200
O2017       O  0.09241125  0.54572308  0.73660695    -0.38300
O2018       O  0.05541087  0.58210860  0.73145681    -0.38200
O2019       O  0.13853367  0.61306928  0.88359850    -0.38900
O2020       O  0.10245413  0.65024045  0.87738355    -0.39000
C2021       C  0.41088914  0.59851868  0.83062700    -0.11300
C2022       C  0.43711016  0.57839551  0.82544277     0.05700
C2023       C  0.44573891  0.56986757  0.79346828    -0.06600
C2024       C  0.42872947  0.58243322  0.76731343    -0.07300
C2025       C  0.40262504  0.60244178  0.77256473    -0.01900
C2026       C  0.39337904  0.61017002  0.80420020     0.04900
N2027       N  0.36682621  0.63071416  0.80957048     0.67400
H2028       H  0.40353487  0.60431781  0.85507046     0.16300
H2029       H  0.43558391  0.57634113  0.74279342     0.16100
N2030       N  0.47077351  0.54736898  0.78724012     0.75200
O2031       O  0.33962647  0.61874072  0.81626777    -0.38300
O2032       O  0.37210051  0.66037050  0.81377559    -0.38200
O2033       O  0.46320129  0.51867376  0.77998317    -0.38900
O2034       O  0.49831748  0.55791928  0.77983553    -0.39000
C2035       C  0.12181982  0.89946820  0.80678670    -0.11300
C2036       C  0.10500395  0.89994581  0.77707589     0.05700
C2037       C  0.07846985  0.92020584  0.77322174    -0.06600
C2038       C  0.06813377  0.93847413  0.79932602    -0.07300
C2039       C  0.08375632  0.93700010  0.82967814    -0.01900
C2040       C  0.11151633  0.91791060  0.83321804     0.04900
N2041       N  0.13029005  0.91806344  0.86248355     0.67400
H2042       H  0.14338059  0.88513623  0.80911135     0.16300
H2043       H  0.04731540  0.95378121  0.79605015     0.16100
N2044       N  0.06294657  0.92394770  0.74244121     0.75200
O2045       O  0.12376915  0.89802035  0.88434345    -0.38300
O2046       O  0.15787369  0.93121178  0.86251583    -0.38200
O2047       O  0.03541301  0.91144436  0.73779755    -0.38900
O2048       O  0.07214369  0.94646176  0.72418617    -0.39000
C2049       C  0.26366599  0.92407525  0.92389751    -0.11300
C2050       C  0.27277191  0.89966861  0.90275169     0.05700
C2051       C  0.30465568  0.88858616  0.90346899    -0.06600
C2052       C  0.32765586  0.90355989  0.92342995    -0.07300
C2053       C  0.31904989  0.92909579  0.94341038    -0.01900
C2054       C  0.28613116  0.93801313  0.94549161     0.04900
N2055       N  0.27472405  0.95881305  0.97080415     0.67400
H2056       H  0.23848486  0.93064618  0.92484148     0.16300
H2057       H  0.35223793  0.89500678  0.92370173     0.16100
N2058       N  0.31374839  0.86138092  0.88483925     0.75200
O2059       O  0.24756562  0.97206898  0.96808365    -0.38300
O2060       O  0.28804132  0.95831914  0.99834040    -0.38200
O2061       O  0.32497308  0.86573184  0.85692564    -0.38900
O2062       O  0.31863844  0.83508003  0.89917942    -0.39000
C2063       C  0.27488892  0.57921302  0.90703330    -0.11300
C2064       C  0.28152657  0.60941338  0.89423618     0.05700
C2065       C  0.31186824  0.62388553  0.90021215    -0.06600
C2066       C  0.33596317  0.60685226  0.91624750    -0.07300
C2067       C  0.32904888  0.57704824  0.92998150    -0.01900
C2068       C  0.29791268  0.56324129  0.92538924     0.04900
N2069       N  0.28833754  0.53401701  0.94066381     0.67400
H2070       H  0.25109842  0.56854902  0.90378783     0.16300
H2071       H  0.35967699  0.61772164  0.91945255     0.16100
N2072       N  0.31837583  0.65635957  0.89198135     0.75200
O2073       O  0.27077268  0.53610908  0.96529120    -0.38300
O2074       O  0.28664505  0.50867272  0.92369577    -0.38200
O2075       O  0.31648848  0.67719383  0.91419581    -0.38900
O2076       O  0.33762349  0.66139335  0.86920917    -0.39000
C2077       C  0.33860282  0.60826552  0.59435270    -0.11300
C2078       C  0.33602467  0.57913899  0.57775520     0.05700
C2079       C  0.30555630  0.56381193  0.57415388    -0.06600
C2080       C  0.27854736  0.57712474  0.58849535    -0.07300
C2081       C  0.28102297  0.60659260  0.60449487    -0.01900
C2082       C  0.31108938  0.62267358  0.60652936     0.04900
N2083       N  0.31369388  0.65483476  0.61803007     0.67400
H2084       H  0.36175782  0.62049024  0.59657807     0.16300
H2085       H  0.25531786  0.56507943  0.58621712     0.16100
N2086       N  0.30147985  0.53534453  0.55503970     0.75200
O2087       O  0.32455948  0.65985305  0.64619365    -0.38300
O2088       O  0.31629777  0.67678266  0.59726259    -0.38200
O2089       O  0.29377726  0.50939662  0.56878989    -0.38900
O2090       O  0.29615788  0.53818130  0.52509567    -0.39000
C2091       C  0.30973256  0.89892948  0.62857851    -0.11300
C2092       C  0.28032397  0.89712619  0.61111534     0.05700
C2093       C  0.27555432  0.91747206  0.58471089    -0.06600
C2094       C  0.30113036  0.93629672  0.57391746    -0.07300
C2095       C  0.33143784  0.93635626  0.58952414    -0.01900
C2096       C  0.33517825  0.91932788  0.61885167     0.04900
N2097       N  0.36397865  0.92202188  0.63875693     0.67400
H2098       H  0.31247200  0.88455745  0.65024922     0.16300
H2099       H  0.29757423  0.95080182  0.55268007     0.16100
N2100       N  0.24456766  0.92069763  0.56974157     0.75200
O2101       O  0.36349000  0.91307429  0.66794218    -0.38300
O2102       O  0.39037089  0.93180283  0.62718221    -0.38200
O2103       O  0.22660303  0.94324478  0.57894823    -0.38900
O2104       O  0.23951495  0.90809390  0.54227218    -0.39000
C2105       C  0.40519872  0.83014081  0.90407462    -0.11300
C2106       C  0.42270970  0.82425175  0.93259927     0.05700
C2107       C  0.42595214  0.79212163  0.94354579    -0.06600
C2108       C  0.41309779  0.76677924  0.92516772    -0.07300
C2109       C  0.39707633  0.77289086  0.89616350    -0.01900
C2110       C  0.39303221  0.80465491  0.88537180     0.04900
N2111       N  0.37750801  0.81098582  0.85492452     0.67400
H2112       H  0.40110364  0.85431075  0.89617721     0.16300
H2113       H  0.41481547  0.74227028  0.93389899     0.16100
N2114       N  0.43985366  0.78492109  0.97444870     0.75200
O2115       O  0.39462805  0.81753525  0.83072215    -0.38300
O2116       O  0.34834795  0.80302954  0.85042839    -0.38200
O2117       O  0.42116979  0.78132701  0.99803739    -0.38900
O2118       O  0.46706186  0.77178277  0.97577375    -0.39000
C2119       C  0.09209125  0.76671361  0.92135439    -0.11300
C2120       C  0.10584373  0.77593442  0.89235096     0.05700
C2121       C  0.10268276  0.80783169  0.88121955    -0.06600
C2122       C  0.08647312  0.83025170  0.90007377    -0.07300
C2123       C  0.07291059  0.82117194  0.92948129    -0.01900
C2124       C  0.07560083  0.78887883  0.94004191     0.04900
N2125       N  0.06181735  0.77780793  0.96951234     0.67400
H2126       H  0.09434133  0.74204480  0.92951953     0.16300
H2127       H  0.08340378  0.85453492  0.89131420     0.16100
N2128       N  0.11549484  0.81775574  0.85086436     0.75200
O2129       O  0.07893719  0.77953944  0.99487486    -0.38300
O2130       O  0.04022907  0.75621318  0.96785436    -0.38200
O2131       O  0.09631039  0.82446895  0.82800961    -0.38900
O2132       O  0.14399451  0.82847510  0.84996653    -0.39000
C2133       C  0.43949953  0.79161715  0.56987688    -0.11300
C2134       C  0.43386620  0.82286881  0.58154917     0.05700
C2135       C  0.41131602  0.82724173  0.60601149    -0.06600
C2136       C  0.39376523  0.80113015  0.61749118    -0.07300
C2137       C  0.39880894  0.77017801  0.60538268    -0.01900
C2138       C  0.42261072  0.76510201  0.58207906     0.04900
N2139       N  0.43008246  0.73352571  0.57081091     0.67400
H2140       H  0.45631707  0.78799439  0.55040999     0.16300
H2141       H  0.37555087  0.80496707  0.63571616     0.16100
N2142       N  0.40246234  0.85841970  0.61605668     0.75200
O2143       O  0.45622804  0.72096084  0.57982255    -0.38300
O2144       O  0.41596928  0.72269473  0.54576825    -0.38200
O2145       O  0.41028251  0.86777838  0.64422236    -0.38900
O2146       O  0.37837476  0.87045033  0.60207277    -0.39000
C2147       C  0.10673309  0.83665353  0.59441459    -0.11300
C2148       C  0.07714780  0.83146694  0.57861403     0.05700
C2149       C  0.06440943  0.79985698  0.57612130    -0.06600
C2150       C  0.08035038  0.77449099  0.59066495    -0.07300
C2151       C  0.10976525  0.77953381  0.60644150    -0.01900
C2152       C  0.12367844  0.81059403  0.60729237     0.04900
N2153       N  0.15593427  0.81563172  0.61820251     0.67400
H2154       H  0.11741601  0.86059368  0.59513312     0.16300
H2155       H  0.07012495  0.75037703  0.58904420     0.16100
N2156       N  0.03586664  0.79280525  0.55783456     0.75200
O2157       O  0.16078851  0.82842056  0.64556098    -0.38300
O2158       O  0.17761495  0.81779070  0.59716173    -0.38200
O2159       O  0.03867953  0.78308201  0.52905232    -0.38900
O2160       O  0.01054141  0.78581374  0.57291155    -0.39000
O2161       O  0.84176812  0.24778906  0.05500012    -0.74300
O2162       O  0.79844129  0.24684354  0.08849984    -0.53200
C2163       C  0.82898120  0.24635430  0.08336022     0.79400
O2164       O  0.74769122  0.34334771  0.44629998    -0.58900
O2165       O  0.74789175  0.30201936  0.40961896    -0.51900
C2166       C  0.74565499  0.33204281  0.41704434     0.71400
O2167       O  0.75143369  0.34000960  0.05841527    -0.73500
O2168       O  0.74883512  0.29608760  0.09103831    -0.54000
C2169       C  0.74994773  0.32668556  0.08662587     0.77400
O2170       O  0.84137541  0.24419450  0.44298650    -0.58600
O2171       O  0.79932838  0.24914574  0.40743552    -0.51700
C2172       C  0.82926686  0.24496918  0.41383108     0.74000
Zr2173     Zr  0.81895770  0.24778046  0.49920015     2.54700
O2174       O  0.86277893  0.28693982  0.49838984    -0.79200
O2175       O  0.85603398  0.20275313  0.50148006    -0.92600
Zr2176     Zr  0.75237953  0.31869002  0.50091211     2.64700
O2177       O  0.79781153  0.35566479  0.50195284    -0.97600
O2178       O  0.71156890  0.36035523  0.50240246    -0.79600
O2179       O  0.78446915  0.28298983  0.03109508    -0.83000
O2180       O  0.78675094  0.28498445  0.46949982    -2.17700
O2181       O  0.74631564  0.16017933  0.44087675    -0.66400
O2182       O  0.74620950  0.20291972  0.40623105    -0.50900
C2183       C  0.74494057  0.17258971  0.41226255     0.72400
O2184       O  0.65672162  0.24145461  0.04866972    -0.59300
O2185       O  0.69720732  0.24134793  0.08666440    -0.51200
C2186       C  0.66726115  0.23903270  0.07810714     0.74200
O2187       O  0.66125086  0.25111381  0.43846680    -0.70700
O2188       O  0.70431123  0.25248969  0.40474635    -0.49300
C2189       C  0.67401571  0.25112254  0.40993751     0.75600
O2190       O  0.74562817  0.15771650  0.05175939    -0.66000
O2191       O  0.74447716  0.19882464  0.08859457    -0.53200
C2192       C  0.74376443  0.16879461  0.08110986     0.74000
Zr2193     Zr  0.74841752  0.18174682  0.99638415     2.77500
O2194       O  0.70558735  0.14106449  0.99548354    -0.96700
O2195       O  0.79179074  0.14272690  0.99592573    -0.77600
Zr2196     Zr  0.68148382  0.25127716  0.99543491     2.70100
O2197       O  0.63298058  0.21788449  0.99111935    -0.78800
O2198       O  0.65337611  0.30219161  0.99903000    -0.97900
Zr2199     Zr  0.74825900  0.24798366  0.05827609     2.21500
Zr2200     Zr  0.75113160  0.25153787  0.43847776     2.11100
O2201       O  0.71457381  0.21639446  0.46563465    -2.46600
O2202       O  0.71836610  0.21977562  0.02160530    -0.78600
O2203       O  0.78409537  0.21448397  0.46705364    -0.70800
O2204       O  0.71444845  0.28429866  0.02998237    -2.31800
O2205       O  0.78359680  0.21413590  0.02878817    -2.28000
O2206       O  0.71716245  0.28667199  0.46751345    -0.72600
H2207       H  0.80014632  0.29798152  0.45556912     0.79400
H2208       H  0.70123862  0.29651759  0.04455601     0.80500
H2209       H  0.70122860  0.20392497  0.45079501     0.82700
H2210       H  0.79606060  0.20037714  0.04297786     0.80400
H2211       H  0.69331678  0.35340592  0.98605396     0.43400
H2212       H  0.64621395  0.30415810  0.52140403     0.42400
H2213       H  0.64015115  0.19605262  0.99728880     0.42000
H2214       H  0.71684439  0.11990640  0.50094277     0.40000
H2215       H  0.79637832  0.13927883  0.47493000     0.43100
H2216       H  0.85166595  0.19253342  0.97941431     0.37900
H2217       H  0.88117656  0.27748925  0.99615308     0.44000
H2218       H  0.79366564  0.37015921  0.52050590     0.40400
H2219       H  0.68986928  0.14892273  0.97919501     0.45300
H2220       H  0.84618610  0.18627518  0.48692586     0.44100
H2221       H  0.81607296  0.34227520  0.50934131     0.44200
H2222       H  0.63827921  0.29947723  0.01724215     0.44600
N2223       N  0.62294896  0.25069125  0.11879892    -0.02500
C2224       C  0.60943840  0.23363793  0.14335762     0.00100
C2225       C  0.62200685  0.20298793  0.14418763    -0.22800
C2226       C  0.64340398  0.20097855  0.11898829    -0.23000
C2227       C  0.64413796  0.23068531  0.10415329     0.00000
H2228       H  0.61506343  0.18364619  0.16025249     0.13800
H2229       H  0.65552113  0.17954362  0.11100443     0.13800
N2230       N  0.88130495  0.24492170  0.11808396    -0.02500
C2231       C  0.88663353  0.23578127  0.14937586     0.00100
C2232       C  0.85819985  0.22583864  0.16347906    -0.22800
C2233       C  0.83456219  0.22898722  0.14076800    -0.23000
C2234       C  0.84893819  0.24030072  0.11296496     0.00000
H2235       H  0.85451370  0.21919754  0.18850630     0.13800
H2236       H  0.80916383  0.22417058  0.14449776     0.13800
N2237       N  0.62314856  0.25412710  0.37427878    -0.02500
C2238       C  0.65420335  0.24578370  0.38017658     0.00100
C2239       C  0.66680606  0.23119944  0.35303844    -0.22800
C2240       C  0.64243186  0.22855057  0.33066772    -0.23000
C2241       C  0.61578622  0.24293358  0.34412622     0.00000
H2242       H  0.69161794  0.22467312  0.34924777     0.13800
H2243       H  0.64443039  0.21867870  0.30644308     0.13800
N2244       N  0.88015386  0.24609871  0.37845924    -0.02500
C2245       C  0.84896713  0.23774285  0.38446808     0.00100
C2246       C  0.83479698  0.22566622  0.35643960    -0.22800
C2247       C  0.85789048  0.22600177  0.33305176    -0.23000
C2248       C  0.88598357  0.23811882  0.34703057     0.00000
H2249       H  0.80981802  0.21848991  0.35294795     0.13800
H2250       H  0.85394813  0.21973686  0.30784303     0.13800
N2251       N  0.95154397  0.36425093  0.50288618    -0.35600
N2252       N  0.50069617  0.36779315  0.05402637    -0.56200
N2253       N  0.55052112  0.36616168  0.50289535    -0.35600
N2254       N  0.49965853  0.36132439  0.45371679    -0.56200
C2255       C  0.93407435  0.35927742  0.03266755     0.28000
C2256       C  0.93287183  0.35645822  0.47691343     0.28000
C2257       C  0.56730012  0.36273559  0.02850290     0.28000
C2258       C  0.56878700  0.36084331  0.47662555     0.28000
C2259       C  0.97617969  0.36608170  0.07601936     0.36600
C2260       C  0.52732736  0.36407420  0.07259288     0.36600
C2261       C  0.97507226  0.35486397  0.43358442     0.36600
C2262       C  0.52519826  0.35511971  0.43475607     0.36600
C2263       C  0.90324028  0.34974958  0.02339657    -0.20900
C2264       C  0.90202880  0.34879723  0.48703185    -0.20900
C2265       C  0.59909959  0.36314197  0.01834846    -0.20900
C2266       C  0.60095690  0.35983567  0.48575785    -0.20900
C2267       C  0.98619112  0.36355314  0.10800707    -0.22000
C2268       C  0.51894481  0.35990012  0.10465601    -0.22000
C2269       C  0.98437095  0.34559779  0.40282315    -0.22000
C2270       C  0.51471535  0.34748347  0.40371709    -0.22000
C2271       C  0.94650448  0.35379933  0.06413130    -0.17300
C2272       C  0.94405253  0.34823027  0.44581903    -0.17300
C2273       C  0.55696055  0.35023643  0.44623331    -0.17300
C2274       C  0.55764497  0.35590692  0.06022635    -0.17300
H2275       H  0.88402351  0.34153252  0.03895171     0.15600
H2276       H  0.88181108  0.34088942  0.47213145     0.15600
H2277       H  0.62068359  0.36287859  0.03326651     0.15600
H2278       H  0.62128442  0.35495366  0.47033023     0.15600
H2279       H  0.97159333  0.35733012  0.12860469     0.13900
H2280       H  0.53492780  0.35462930  0.12481761     0.13900
H2281       H  0.96910707  0.33685423  0.38318879     0.13900
H2282       H  0.52897750  0.34065399  0.38315564     0.13900
H2283       H  0.97574511  0.37019581  0.50243703     0.27100
H2284       H  0.52584663  0.36401586  0.50357592     0.27100
O2285       O  0.55411378  0.24494787  0.15480288    -0.74300
O2286       O  0.59161129  0.24807268  0.19557476    -0.53200
C2287       C  0.58348133  0.24415009  0.16562127     0.79400
O2288       O  0.94309811  0.33966660  0.25043405    -0.58900
O2289       O  0.90934139  0.29597184  0.24798527    -0.51900
C2290       C  0.91473518  0.32664539  0.24812313     0.71400
O2291       O  0.55226298  0.34386598  0.24595012    -0.73500
O2292       O  0.58908761  0.30368186  0.24223012    -0.54000
C2293       C  0.58136094  0.33367260  0.24286684     0.77400
O2294       O  0.94429897  0.24348306  0.15728874    -0.58600
O2295       O  0.91008032  0.24463320  0.19999659    -0.51700
C2296       C  0.91582898  0.24209074  0.16971482     0.74000
Zr2297     Zr  0.99970529  0.25138959  0.17964914     2.54700
O2298       O  0.99766831  0.30034150  0.14808371    -0.79200
O2299       O  0.99781330  0.21743634  0.13137721    -0.92600
Zr2300     Zr  0.99853931  0.31806039  0.25083134     2.64700
O2301       O  0.49771206  0.35524468  0.20321053    -0.97600
O2302       O  0.99698207  0.35537104  0.29629617    -0.79600
O2303       O  0.52549620  0.28107160  0.21606827    -0.83000
O2304       O  0.96829436  0.28413749  0.21442288    -2.17700
O2305       O  0.95122114  0.15613179  0.23813866    -0.66400
O2306       O  0.91356522  0.19582011  0.24024918    -0.50900
C2307       C  0.92199073  0.16632609  0.23622274     0.72400
O2308       O  0.55783577  0.24670710  0.33765945    -0.59300
O2309       O  0.59159154  0.25144942  0.29453386    -0.51200
C2310       C  0.58615976  0.24806335  0.32476571     0.74200
O2311       O  0.94445367  0.24618036  0.33974437    -0.70700
O2312       O  0.90977412  0.24443921  0.29662082    -0.49300
C2313       C  0.91560440  0.24404226  0.32713467     0.75600
O2314       O  0.56185923  0.16036690  0.24592340    -0.66000
O2315       O  0.59452046  0.20479993  0.24496829    -0.53200
C2316       C  0.59002370  0.17409949  0.24477477     0.74000
Zr2317     Zr  0.50510698  0.18004839  0.24662868     2.77500
O2318       O  0.50442507  0.14276965  0.29161563    -0.96700
O2319       O  0.50971652  0.13605814  0.20782080    -0.77600
Zr2320     Zr  0.50155050  0.24815814  0.31627881     2.70100
O2321       O  0.50276245  0.20818771  0.35922996    -0.78800
O2322       O  0.50224454  0.29207923  0.35493331    -0.97900
Zr2323     Zr  0.56101346  0.25213146  0.24544475     2.21500
Zr2324     Zr  0.94140103  0.24708994  0.24868055     2.11100
O2325       O  0.97131247  0.21192406  0.28287789    -2.46600
O2326       O  0.53414621  0.21612019  0.28124471    -0.78600
O2327       O  0.97218237  0.21439880  0.21358272    -0.70800
O2328       O  0.53110706  0.28448951  0.28225727    -2.31800
O2329       O  0.53250682  0.21530593  0.21099269    -2.28000
O2330       O  0.97402710  0.27834586  0.28024586    -0.72600
H2331       H  0.95326529  0.29653070  0.20165337     0.79400
H2332       H  0.54524997  0.29803761  0.29528267     0.80500
H2333       H  0.95730156  0.19791783  0.29513295     0.82700
H2334       H  0.54660503  0.20250746  0.19778893     0.80400
H2335       H  0.48223783  0.37113461  0.28738456     0.43400
H2336       H  0.98265730  0.27905659  0.37585943     0.42400
H2337       H  0.48785603  0.19088914  0.35162363     0.42000
H2338       H  0.98251761  0.13189273  0.28982042     0.40000
H2339       H  0.01324095  0.14809719  0.18787437     0.43100
H2340       H  0.51241399  0.19655245  0.13601525     0.37900
H2341       H  0.47668344  0.29651240  0.13551613     0.44000
H2342       H  0.01611989  0.35529253  0.19559398     0.40400
H2343       H  0.52138230  0.12698160  0.28650951     0.45300
H2344       H  0.00759313  0.23071937  0.11413898     0.44100
H2345       H  0.97847523  0.35308435  0.19493389     0.44200
H2346       H  0.48737296  0.28489821  0.37211936     0.44600
N2347       N  0.75343668  0.37737171  0.12402735    -0.02500
C2348       C  0.74294359  0.38263655  0.15463649     0.00100
C2349       C  0.72984552  0.35476417  0.16726808    -0.22800
C2350       C  0.73128870  0.33186162  0.14359945    -0.23000
C2351       C  0.74560257  0.34597400  0.11695958     0.00000
H2352       H  0.72132054  0.35097711  0.19163254     0.13800
H2353       H  0.72301426  0.30714573  0.14584045     0.13800
N2354       N  0.75182874  0.11858994  0.11663811    -0.02500
C2355       C  0.73729683  0.14680118  0.10877988     0.00100
C2356       C  0.71504897  0.15429437  0.13209321    -0.22800
C2357       C  0.71412034  0.12910001  0.15333973    -0.23000
C2358       C  0.73727521  0.10759892  0.14399339     0.00000
H2359       H  0.70212491  0.17651372  0.13441461     0.13800
H2360       H  0.69884457  0.12694439  0.17406072     0.13800
N2361       N  0.75685102  0.12537473  0.37482938    -0.03700
C2362       C  0.73955638  0.15145612  0.38374305     0.00100
C2363       C  0.71561420  0.15705614  0.36111746    -0.22800
C2364       C  0.71841495  0.13415637  0.33728674    -0.23000
C2365       C  0.74360643  0.11458471  0.34640729     0.00000
H2366       H  0.69694256  0.17467302  0.36273211     0.13800
H2367       H  0.70291429  0.13129857  0.31616386     0.13800
N2368       N  0.74812204  0.38298221  0.38150951    -0.02500
C2369       C  0.73457684  0.39080358  0.35248006     0.00100
C2370       C  0.71444460  0.36598804  0.34208258    -0.22800
C2371       C  0.71578687  0.34238138  0.36521529    -0.23000
C2372       C  0.73646172  0.35326264  0.38940988     0.00000
H2373       H  0.70124470  0.36457398  0.31934313     0.13800
H2374       H  0.70390851  0.31905928  0.36400246     0.13800
N2375       N  0.87320331  0.50737808  0.05654099    -0.35600
N2376       N  0.86519866  0.45771384  0.50870872    -0.56200
N2377       N  0.86222313  0.50512360  0.45855883    -0.35600
N2378       N  0.87181971  0.05551288  0.50681958    -0.56200
C2379       C  0.86412331  0.48328264  0.07661119     0.28000
C2380       C  0.87458897  0.03601506  0.07634782     0.28000
C2381       C  0.85876302  0.47826052  0.44033999     0.28000
C2382       C  0.85682249  0.02768894  0.44296762     0.28000
C2383       C  0.85991887  0.43834174  0.03611554     0.36600
C2384       C  0.85651389  0.43806088  0.48392856     0.36600
C2385       C  0.87318951  0.07643539  0.03123553     0.36600
C2386       C  0.86182860  0.07309671  0.48125960     0.36600
C2387       C  0.85945426  0.49562753  0.10743073    -0.20900
C2388       C  0.86834385  0.02917181  0.10853597    -0.20900
C2389       C  0.85953346  0.48624089  0.40777568    -0.20900
C2390       C  0.85390772  0.01626473  0.41156502    -0.20900
C2391       C  0.85221341  0.40668417  0.02812026    -0.22000
C2392       C  0.85089418  0.40733244  0.49490066    -0.22000
C2393       C  0.86660494  0.10762116  0.02128951    -0.22000
C2394       C  0.85947789  0.10517155  0.49005932    -0.22000
C2395       C  0.85420757  0.45195872  0.06694366    -0.17300
C2396       C  0.86556266  0.06561034  0.06250081    -0.17300
C2397       C  0.85038892  0.05946247  0.45192136    -0.17300
C2398       C  0.84834032  0.44846929  0.45260938    -0.17300
H2399       H  0.85071349  0.48323857  0.12851318     0.15600
H2400       H  0.86252120  0.04623025  0.12748361     0.15600
H2401       H  0.85571442  0.47067436  0.38705490     0.15600
H2402       H  0.84978072  0.03041162  0.39004865     0.15600
H2403       H  0.84608666  0.38744052  0.04461070     0.13900
H2404       H  0.84334098  0.38683117  0.48041585     0.13900
H2405       H  0.86323865  0.12864561  0.03640262     0.13900
H2406       H  0.85158989  0.12524180  0.47565139     0.13900
H2407       H  0.87690617  0.50580731  0.03186729     0.27100
H2408       H  0.85551167  0.50706308  0.48259748     0.27100
N2409       N  0.61842594  0.38414393  0.25006999    -0.02500
C2410       C  0.60800275  0.35655263  0.23479199     0.00100
C2411       C  0.62882228  0.34913602  0.21012050    -0.22800
C2412       C  0.65243337  0.37249823  0.20996467    -0.23000
C2413       C  0.64592567  0.39344574  0.23495960     0.00000
H2414       H  0.62705971  0.32831830  0.19436212     0.13800
H2415       H  0.67225064  0.37414964  0.19339228     0.13800
N2416       N  0.88565787  0.11737647  0.24328156    -0.02500
C2417       C  0.89595422  0.14344406  0.22651610     0.00100
C2418       C  0.87541604  0.14864947  0.20059677    -0.22800
C2419       C  0.85160677  0.12530246  0.20199592    -0.23000
C2420       C  0.85839958  0.10646648  0.22843923     0.00000
H2421       H  0.87755187  0.16736679  0.18272509     0.13800
H2422       H  0.83116505  0.12204405  0.18589217     0.13800
N2423       N  0.62662531  0.12417653  0.25053935    -0.02500
C2424       C  0.62004797  0.15474414  0.24026889     0.00100
C2425       C  0.64724348  0.16833385  0.22667308    -0.22800
C2426       C  0.67112513  0.14596454  0.22871568    -0.23000
C2427       C  0.65798308  0.11855040  0.24244522     0.00000
H2428       H  0.64991148  0.19259651  0.21748726     0.13800
H2429       H  0.69598288  0.14993017  0.22206677     0.13800
N2430       N  0.87997390  0.37781833  0.25272878    -0.02500
C2431       C  0.84933329  0.38490706  0.24247244     0.00100
C2432       C  0.83666126  0.35914072  0.22495050    -0.22800
C2433       C  0.85946359  0.33549572  0.22483374    -0.23000
C2434       C  0.88577803  0.34711300  0.24229539     0.00000
H2435       H  0.81303426  0.35756743  0.21358113     0.13800
H2436       H  0.85696004  0.31206151  0.21336900     0.13800
N2437       N  0.51025996  0.46186405  0.36037854    -0.35600
N2438       N  0.96195365  0.50625135  0.35982918    -0.56200
N2439       N  0.50710454  0.06132185  0.37141881    -0.35600
N2440       N  0.55862799  0.51201373  0.37284896    -0.56200
C2441       C  0.99018898  0.44161672  0.35230742     0.28000
C2442       C  0.53725652  0.44409672  0.36254757     0.28000
C2443       C  0.97807324  0.07742954  0.36395473     0.28000
C2444       C  0.53327807  0.08055287  0.36659527     0.28000
C2445       C  0.94558269  0.48035039  0.34836529     0.36600
C2446       C  0.93588714  0.03354088  0.36027585     0.36600
C2447       C  0.57863593  0.48778235  0.36460876     0.36600
C2448       C  0.57691796  0.03909290  0.36920776     0.36600
C2449       C  0.00097068  0.41032315  0.35389136    -0.20900
C2450       C  0.52918820  0.41169677  0.35935793    -0.20900
C2451       C  0.98709548  0.10915300  0.35849803    -0.20900
C2452       C  0.52316292  0.11134654  0.35882399    -0.20900
C2453       C  0.91426327  0.48834442  0.34039136    -0.22000
C2454       C  0.90476068  0.02379685  0.35170682    -0.22000
C2455       C  0.60935544  0.49975971  0.35976545    -0.22000
C2456       C  0.60882261  0.03044205  0.36475450    -0.22000
C2457       C  0.95949457  0.45056788  0.34109011    -0.17300
C2458       C  0.56852948  0.45611854  0.35645324    -0.17300
C2459       C  0.56531912  0.07004274  0.36149092    -0.17300
C2460       C  0.94765072  0.06479593  0.35417868    -0.17300
H2461       H  0.98746439  0.38861232  0.34820178     0.15600
H2462       H  0.54573106  0.39182395  0.35730096     0.15600
H2463       H  0.97165283  0.12862734  0.35083601     0.15600
H2464       H  0.53818883  0.13183993  0.35259698     0.15600
H2465       H  0.89559059  0.47276519  0.33037028     0.13900
H2466       H  0.88446572  0.03905357  0.34615606     0.13900
H2467       H  0.63017882  0.48685181  0.35168149     0.13900
H2468       H  0.62927330  0.04642372  0.36138448     0.13900
H2469       H  0.50978079  0.48626047  0.35534307     0.27100
H2470       H  0.50717529  0.03706027  0.37703643     0.27100
O2471       O  0.74863112  0.44055967  0.16123913    -0.74300
O2472       O  0.74754328  0.40717572  0.20497407    -0.53200
C2473       C  0.74716872  0.41228729  0.17448905     0.79400
O2474       O  0.84688959  0.05161327  0.24216843    -0.58900
O2475       O  0.80650953  0.08865957  0.24081390    -0.51900
C2476       C  0.83626280  0.08058335  0.23898587     0.71400
O2477       O  0.84271839  0.44260872  0.24887557    -0.73500
O2478       O  0.79876987  0.40913112  0.24977488    -0.54000
C2479       C  0.82948429  0.41428729  0.24835049     0.77400
O2480       O  0.74706354  0.05134374  0.15472974    -0.58600
O2481       O  0.75021793  0.08831913  0.19583639    -0.51700
C2482       C  0.74666311  0.08056989  0.16572877     0.74000
Zr2483     Zr  0.75138453  0.99733522  0.17981853     2.54700
O2484       O  0.79551284  0.99863463  0.14172374    -0.79200
O2485       O  0.71135231  0.99127258  0.13659313    -0.92600
Zr2486     Zr  0.82188198  0.99750692  0.24674225     2.64700
O2487       O  0.85477884  0.99376776  0.19836944    -0.97600
O2488       O  0.86884814  0.99895642  0.28231707    -0.79600
O2489       O  0.78418840  0.46731168  0.21478230    -0.83000
O2490       O  0.78798646  0.02832758  0.21210811    -2.17700
O2491       O  0.66440089  0.06029908  0.24868549    -0.66400
O2492       O  0.70844630  0.09352404  0.24697639    -0.50900
C2493       C  0.67776434  0.08867653  0.24718459     0.72400
O2494       O  0.74595735  0.44738419  0.34251599    -0.59300
O2495       O  0.74406653  0.41105139  0.30094891    -0.51200
C2496       C  0.74263741  0.41840482  0.33107796     0.74200
O2497       O  0.75308746  0.05793711  0.33878222    -0.70700
O2498       O  0.75581008  0.09251539  0.29594203    -0.49300
C2499       C  0.75282684  0.08648803  0.32628605     0.75600
O2500       O  0.65802833  0.44916672  0.24653100    -0.66000
O2501       O  0.69839402  0.41205999  0.24634354    -0.53200
C2502       C  0.66853471  0.42000067  0.24423587     0.74000
Zr2503     Zr  0.68310710  0.50363777  0.25048764     2.77500
O2504       O  0.64210199  0.50257241  0.29210831    -0.96700
O2505       O  0.64307427  0.50752193  0.20719349    -0.77600
Zr2506     Zr  0.75439219  0.50180047  0.31850725     2.70100
O2507       O  0.71973268  0.50529210  0.36556732    -0.78800
O2508       O  0.80185187  0.50034119  0.35356841    -0.97900
Zr2509     Zr  0.74945053  0.44073511  0.25160440     2.21500
Zr2510     Zr  0.75592491  0.06017943  0.24708371     2.11100
O2511       O  0.72136709  0.03255672  0.28369231    -2.46600
O2512       O  0.71649666  0.47237990  0.28586964    -0.78600
O2513       O  0.71905209  0.03059893  0.21366970    -0.70800
O2514       O  0.78701419  0.46954614  0.28465960    -2.31800
O2515       O  0.71517243  0.47063067  0.21635007    -2.28000
O2516       O  0.79071472  0.03050097  0.28210004    -0.72600
H2517       H  0.80063342  0.04173381  0.19790205     0.79400
H2518       H  0.79975654  0.45516701  0.29767715     0.80500
H2519       H  0.70902497  0.04746492  0.29646839     0.82700
H2520       H  0.70146698  0.45667388  0.20331450     0.80400
H2521       H  0.88495638  0.49842757  0.27200727     0.43400
H2522       H  0.81014818  0.97835398  0.35264959     0.42400
H2523       H  0.69778029  0.50079331  0.35687756     0.42000
H2524       H  0.63846663  0.02606149  0.29593942     0.40000
H2525       H  0.65158733  0.99676246  0.18960852     0.43100
H2526       H  0.69723022  0.47272211  0.14221932     0.37900
H2527       H  0.79846717  0.52051483  0.13765955     0.44000
H2528       H  0.85189046  0.01455208  0.18709919     0.40400
H2529       H  0.62194639  0.49621808  0.28056264     0.45300
H2530       H  0.69706651  0.01007429  0.13903313     0.44100
H2531       H  0.87727157  0.99468036  0.20657127     0.44200
H2532       H  0.82018424  0.50537210  0.33922519     0.44600
C2533       C  0.89710030  0.39134590  0.30844140    -0.11300
C2534       C  0.90003864  0.39607387  0.27487949     0.05700
C2535       C  0.92402125  0.41728586  0.26338763    -0.06600
C2536       C  0.94454298  0.43338511  0.28532084    -0.07300
C2537       C  0.94131318  0.42892429  0.31868415    -0.01900
C2538       C  0.91738687  0.40813004  0.33027687     0.04900
N2539       N  0.91391943  0.40450199  0.36433788     0.67400
H2540       H  0.87887779  0.37496879  0.31748262     0.16300
H2541       H  0.96239219  0.45029559  0.27636092     0.16100
N2542       N  0.92729240  0.42346362  0.22961004     0.75200
O2543       O  0.90437000  0.42831234  0.38052357    -0.38300
O2544       O  0.93215333  0.38480887  0.37823971    -0.38200
O2545       O  0.91472294  0.44849413  0.21799250    -0.38900
O2546       O  0.94991322  0.41027091  0.21448376    -0.39000
C2547       C  0.57340486  0.07402474  0.30279874    -0.11300
C2548       C  0.58198013  0.08553724  0.33381269     0.05700
C2549       C  0.60643341  0.10916193  0.33707607    -0.06600
C2550       C  0.62086060  0.12153588  0.30921314    -0.07300
C2551       C  0.61168556  0.11027759  0.27827722    -0.01900
C2552       C  0.58798279  0.08619235  0.27511894     0.04900
N2553       N  0.57916482  0.07318842  0.24417188     0.67400
H2554       H  0.55571804  0.05477646  0.30026278     0.16300
H2555       H  0.63951530  0.13990923  0.31156930     0.16100
N2556       N  0.61783155  0.11981789  0.36812737     0.75200
O2557       O  0.59134190  0.04690512  0.23529188    -0.38300
O2558       O  0.55362315  0.08261223  0.23050599    -0.38200
O2559       O  0.64394646  0.10863755  0.37903922    -0.38900
O2560       O  0.60774577  0.14613393  0.37936884    -0.39000
C2561       C  0.90566494  0.09984961  0.32963908    -0.11300
C2562       C  0.93256576  0.08030438  0.32579246     0.05700
C2563       C  0.94315510  0.07223552  0.29434065    -0.06600
C2564       C  0.92736774  0.08467437  0.26738126    -0.07300
C2565       C  0.90070692  0.10427118  0.27129933    -0.01900
C2566       C  0.88944028  0.11143021  0.30237127     0.04900
N2567       N  0.86236329  0.13163539  0.30634219     0.67400
H2568       H  0.89698631  0.10547505  0.35366371     0.16300
H2569       H  0.93570013  0.07892358  0.24326172     0.16100
N2570       N  0.96951495  0.05095754  0.28941751     0.75200
O2571       O  0.83529918  0.11951362  0.31329272    -0.38300
O2572       O  0.86694488  0.16155244  0.30897338    -0.38200
O2573       O  0.96371429  0.02203947  0.28152030    -0.38900
O2574       O  0.99697133  0.06284094  0.28381155    -0.39000
C2575       C  0.62304217  0.40140696  0.30683528    -0.11300
C2576       C  0.60533989  0.40029332  0.27759223     0.05700
C2577       C  0.57821381  0.41982054  0.27386335    -0.06600
C2578       C  0.56844986  0.43912022  0.29948538    -0.07300
C2579       C  0.58492381  0.43916242  0.32945078    -0.01900
C2580       C  0.61309151  0.42062453  0.33291066     0.04900
N2581       N  0.63242520  0.42180504  0.36180998     0.67400
H2582       H  0.64498516  0.38765018  0.30908358     0.16300
H2583       H  0.54718021  0.45380950  0.29624635     0.16100
N2584       N  0.56125740  0.42161375  0.24364423     0.75200
O2585       O  0.62727063  0.40155488  0.38385156    -0.38300
O2586       O  0.65949245  0.43596410  0.36112700    -0.38200
O2587       O  0.53346588  0.40911859  0.24123036    -0.38900
O2588       O  0.56957653  0.44284081  0.22352801    -0.39000
C2589       C  0.76612090  0.41467875  0.42792777    -0.11300
C2590       C  0.77307371  0.40027538  0.39833499     0.05700
C2591       C  0.80456704  0.40195532  0.38623650    -0.06600
C2592       C  0.82910012  0.41558033  0.40524880    -0.07300
C2593       C  0.82240514  0.43072557  0.43461539    -0.01900
C2594       C  0.79025060  0.43056671  0.44577254     0.04900
N2595       N  0.78172173  0.44518841  0.47574572     0.67400
H2596       H  0.74173888  0.41364757  0.43707243     0.16300
H2597       H  0.85327758  0.41477322  0.39667046     0.16100
N2598       N  0.81180719  0.39134218  0.35424489     0.75200
O2599       O  0.76588467  0.47093286  0.47524358    -0.38300
O2600       O  0.77929583  0.42724871  0.50008826    -0.38200
O2601       O  0.81876254  0.41201514  0.33311747    -0.38900
O2602       O  0.81990766  0.36260050  0.34964572    -0.39000
C2603       C  0.77274926  0.07989956  0.40736105    -0.11300
C2604       C  0.78069443  0.10951613  0.39401755     0.05700
C2605       C  0.81136757  0.12314461  0.40031729    -0.06600
C2606       C  0.83439289  0.10589926  0.41765854    -0.07300
C2607       C  0.82621859  0.07665803  0.43191927    -0.01900
C2608       C  0.79480535  0.06365696  0.42667135     0.04900
N2609       N  0.78456953  0.03401956  0.44065915     0.67400
H2610       H  0.74883956  0.06973635  0.40338838     0.16300
H2611       H  0.85842174  0.11599526  0.42094274     0.16100
N2612       N  0.81913285  0.15518629  0.39142728     0.75200
O2613       O  0.76825523  0.03518718  0.46622202    -0.38300
O2614       O  0.78117263  0.00987154  0.42220240    -0.38200
O2615       O  0.81608561  0.17669512  0.41279776    -0.38900
O2616       O  0.84014040  0.15918413  0.37001642    -0.39000
C2617       C  0.83796705  0.10891901  0.09281787    -0.11300
C2618       C  0.83614454  0.07961726  0.07642823     0.05700
C2619       C  0.80604039  0.06354677  0.07279272    -0.06600
C2620       C  0.77869263  0.07632780  0.08695374    -0.07300
C2621       C  0.78039793  0.10598952  0.10268194    -0.01900
C2622       C  0.81006375  0.12281901  0.10468879     0.04900
N2623       N  0.81189951  0.15511010  0.11599121     0.67400
H2624       H  0.86083976  0.12165701  0.09513584     0.16300
H2625       H  0.75575608  0.06372150  0.08468994     0.16100
N2626       N  0.80266208  0.03479644  0.05394016     0.75200
O2627       O  0.82236261  0.16052610  0.14422863    -0.38300
O2628       O  0.81431321  0.17699008  0.09513226    -0.38200
O2629       O  0.79625437  0.00870113  0.06806792    -0.38900
O2630       O  0.79646363  0.03717913  0.02410063    -0.39000
C2631       C  0.80861598  0.39905748  0.12655185    -0.11300
C2632       C  0.77873752  0.39635992  0.11009290     0.05700
C2633       C  0.77245866  0.41660268  0.08393086    -0.06600
C2634       C  0.79724756  0.43578729  0.07184692    -0.07300
C2635       C  0.82827446  0.43587310  0.08585341    -0.01900
C2636       C  0.83330783  0.41965194  0.11543236     0.04900
N2637       N  0.86266221  0.42355070  0.13430440     0.67400
H2638       H  0.81237453  0.38521501  0.14842603     0.16300
H2639       H  0.79249217  0.45076434  0.05109475     0.16100
N2640       N  0.74063847  0.41942998  0.07079792     0.75200
O2641       O  0.86302785  0.41646103  0.16401641    -0.38300
O2642       O  0.88880674  0.43192041  0.12120197    -0.38200
O2643       O  0.72395551  0.44349985  0.07837591    -0.38900
O2644       O  0.73252029  0.40287693  0.04633907    -0.39000
C2645       C  0.90070194  0.32859996  0.40757028    -0.11300
C2646       C  0.92598196  0.32193334  0.42912119     0.05700
C2647       C  0.93486703  0.28964091  0.43468989    -0.06600
C2648       C  0.91967658  0.26475033  0.41775055    -0.07300
C2649       C  0.89608556  0.27169722  0.39503135    -0.01900
C2650       C  0.88652207  0.30360764  0.38964179     0.04900
N2651       N  0.86221176  0.31042441  0.36605505     0.67400
H2652       H  0.89194139  0.35286986  0.40476911     0.16300
H2653       H  0.92649650  0.23997921  0.42199076     0.16100
N2654       N  0.96029943  0.28172100  0.45647881     0.75200
O2655       O  0.86990721  0.31258613  0.33663900    -0.38300
O2656       O  0.83301253  0.30610684  0.37325567    -0.38200
O2657       O  0.95331350  0.27270566  0.48470350    -0.38900
O2658       O  0.98659045  0.27299885  0.44445834    -0.39000
C2659       C  0.59390770  0.27090250  0.42176593    -0.11300
C2660       C  0.60633192  0.27842360  0.39161270     0.05700
C2661       C  0.60404572  0.31015020  0.37970949    -0.06600
C2662       C  0.58925606  0.33380599  0.39837742    -0.07300
C2663       C  0.57648942  0.32623015  0.42860860    -0.01900
C2664       C  0.57929032  0.29444438  0.44046548     0.04900
N2665       N  0.56640080  0.28513069  0.47091065     0.67400
H2666       H  0.59571310  0.24651474  0.43083060     0.16300
H2667       H  0.58644051  0.35779094  0.38875121     0.16100
N2668       N  0.61658426  0.31871897  0.34883212     0.75200
O2669       O  0.58510240  0.28440077  0.49516845    -0.38300
O2670       O  0.54172562  0.26720790  0.47084052    -0.38200
O2671       O  0.59723318  0.32428658  0.32579390    -0.38900
O2672       O  0.64508147  0.32934557  0.34722095    -0.39000
C2673       C  0.93728894  0.29460749  0.06737961    -0.11300
C2674       C  0.93237937  0.32533557  0.08091573     0.05700
C2675       C  0.91130184  0.32832163  0.10694505    -0.06600
C2676       C  0.89493021  0.30148391  0.11849164    -0.07300
C2677       C  0.89899011  0.27120876  0.10450331    -0.01900
C2678       C  0.92093896  0.26745971  0.07913292     0.04900
N2679       N  0.92672206  0.23668420  0.06493897     0.67400
H2680       H  0.95322425  0.29195066  0.04695508     0.16300
H2681       H  0.87774659  0.30440285  0.13787821     0.16100
N2682       N  0.90103171  0.35882123  0.11753740     0.75200
O2683       O  0.95103712  0.22106592  0.07421080    -0.38300
O2684       O  0.91400592  0.23000433  0.03779571    -0.38200
O2685       O  0.91040523  0.36900425  0.14496409    -0.38900
O2686       O  0.87438219  0.36790686  0.10620971    -0.39000
C2687       C  0.60476947  0.33438519  0.09092749    -0.11300
C2688       C  0.57461942  0.32917880  0.07624703     0.05700
C2689       C  0.56141958  0.29762141  0.07469859    -0.06600
C2690       C  0.57812992  0.27229134  0.08849414    -0.07300
C2691       C  0.60795028  0.27751633  0.10357454    -0.01900
C2692       C  0.62179778  0.30856752  0.10406217     0.04900
N2693       N  0.65361280  0.31404098  0.11617424     0.67400
H2694       H  0.61534567  0.35836894  0.09159018     0.16300
H2695       H  0.56772172  0.24822365  0.08769253     0.16100
N2696       N  0.53073090  0.29087641  0.05993587     0.75200
O2697       O  0.65731375  0.32726827  0.14350068    -0.38300
O2698       O  0.67619754  0.31585217  0.09609582    -0.38200
O2699       O  0.52965892  0.27670742  0.03288460    -0.38900
O2700       O  0.50646449  0.28887749  0.07788718    -0.39000
O2701       O  0.84135929  0.24686493  0.55524789    -0.74300
O2702       O  0.79798118  0.24657939  0.58870274    -0.53200
C2703       C  0.82845737  0.24579723  0.58359982     0.79400
O2704       O  0.74505094  0.34380275  0.94725904    -0.58900
O2705       O  0.74689201  0.30300350  0.91002306    -0.51900
C2706       C  0.74351149  0.33279421  0.91785652     0.71400
O2707       O  0.75377915  0.34071898  0.55730233    -0.73500
O2708       O  0.75058412  0.29689534  0.58996922    -0.54000
C2709       C  0.75222525  0.32747069  0.58552575     0.77400
O2710       O  0.84199976  0.24711609  0.94349642    -0.58600
O2711       O  0.79999164  0.25070212  0.90771701    -0.51700
C2712       C  0.83006521  0.24731711  0.91428172     0.74000
Zr2713     Zr  0.81870867  0.24922230  0.99934870     2.54700
O2714       O  0.86139505  0.28943978  0.00156834    -0.79200
O2715       O  0.85676181  0.20488514  0.99944237    -0.92600
Zr2716     Zr  0.75059134  0.31882061  0.00166191     2.64700
O2717       O  0.79470519  0.35719513  0.00298034    -0.97600
O2718       O  0.70765108  0.35822036  0.00483161    -0.79600
O2719       O  0.78537053  0.28235656  0.53074115    -0.83000
O2720       O  0.78588468  0.28619180  0.96999434    -2.17700
O2721       O  0.74706001  0.16102685  0.94005494    -0.66400
O2722       O  0.74637122  0.20402863  0.90572327    -0.50900
C2723       C  0.74538189  0.17364733  0.91153299     0.72400
O2724       O  0.65716507  0.24325901  0.54905007    -0.59300
O2725       O  0.69753455  0.24334706  0.58711542    -0.51200
C2726       C  0.66761284  0.24114834  0.57851200     0.74200
O2727       O  0.66100605  0.25106514  0.93813896    -0.70700
O2728       O  0.70427322  0.25353307  0.90470433    -0.49300
C2729       C  0.67393743  0.25178053  0.90965739     0.75600
O2730       O  0.74413359  0.15780530  0.55239245    -0.66000
O2731       O  0.74394604  0.19908272  0.58906467    -0.53200
C2732       C  0.74273944  0.16897137  0.58173130     0.74000
Zr2733     Zr  0.74770674  0.18144883  0.49695886     2.77500
O2734       O  0.70568883  0.14002668  0.49490646    -0.96700
O2735       O  0.79123294  0.14269408  0.49803601    -0.77600
Zr2736     Zr  0.68171526  0.25182185  0.49560250     2.70100
O2737       O  0.63442954  0.21663453  0.49226384    -0.78800
O2738       O  0.64924197  0.30008300  0.49798310    -0.97900
Zr2739     Zr  0.74837231  0.24820030  0.55815267     2.21500
Zr2740     Zr  0.75119371  0.25236065  0.93836909     2.11100
O2741       O  0.71499058  0.21659277  0.96525607    -2.46600
O2742       O  0.71796176  0.21987212  0.52204725    -0.78600
O2743       O  0.78447098  0.21557787  0.96689994    -0.70800
O2744       O  0.71539756  0.28501508  0.52941532    -2.31800
O2745       O  0.78330521  0.21360254  0.52902053    -2.28000
O2746       O  0.71644027  0.28657291  0.96753246    -0.72600
H2747       H  0.79907300  0.29963374  0.95628998     0.79400
H2748       H  0.70246930  0.29760149  0.54389600     0.80500
H2749       H  0.70178021  0.20416120  0.95026730     0.82700
H2750       H  0.79558963  0.19978048  0.54335164     0.80400
H2751       H  0.69833936  0.35517269  0.52155297     0.43400
H2752       H  0.63970039  0.30268017  0.97926015     0.42400
H2753       H  0.64145085  0.19619730  0.50225540     0.42000
H2754       H  0.69444109  0.14354350  0.01641863     0.40000
H2755       H  0.78386580  0.12503927  0.98163828     0.43100
H2756       H  0.87533294  0.21039604  0.48976065     0.37900
H2757       H  0.87924862  0.27845125  0.51354604     0.44000
H2758       H  0.79089713  0.37041481  0.02254005     0.40400
H2759       H  0.69163319  0.14481845  0.51351534     0.45300
H2760       H  0.84963100  0.19060072  0.01717613     0.44100
H2761       H  0.81349068  0.34383886  0.00892983     0.44200
H2762       H  0.66374946  0.31761602  0.49077340     0.44600
N2763       N  0.62347542  0.25228979  0.61961955    -0.02500
C2764       C  0.60870717  0.23395223  0.64252855     0.00100
C2765       C  0.62014648  0.20287144  0.64154904    -0.22800
C2766       C  0.64219172  0.20184632  0.61691248    -0.23000
C2767       C  0.64442129  0.23248858  0.60431288     0.00000
H2768       H  0.61207430  0.18272862  0.65603266     0.13800
H2769       H  0.65374769  0.18056150  0.60768900     0.13800
N2770       N  0.88052813  0.24435364  0.61830260    -0.02500
C2771       C  0.88583162  0.23575484  0.64974249     0.00100
C2772       C  0.85725691  0.22662358  0.66414594    -0.22800
C2773       C  0.83363814  0.22951059  0.64138856    -0.23000
C2774       C  0.84817009  0.23998930  0.61333520     0.00000
H2775       H  0.85350972  0.22055551  0.68931140     0.13800
H2776       H  0.80818679  0.22509313  0.64522369     0.13800
N2777       N  0.62323634  0.25455173  0.87343334    -0.02500
C2778       C  0.65445874  0.24687570  0.87950198     0.00100
C2779       C  0.66770059  0.23343876  0.85207247    -0.22800
C2780       C  0.64361305  0.23074731  0.82938054    -0.23000
C2781       C  0.61642637  0.24396243  0.84295694     0.00000
H2782       H  0.69271168  0.22762917  0.84836390     0.13800
H2783       H  0.64610843  0.22152542  0.80495722     0.13800
N2784       N  0.88160135  0.24780993  0.87935363    -0.02500
C2785       C  0.85018182  0.23988555  0.88516975     0.00100
C2786       C  0.83629024  0.22712024  0.85732129    -0.22800
C2787       C  0.85968788  0.22638183  0.83428502    -0.23000
C2788       C  0.88764636  0.23900285  0.84811533     0.00000
H2789       H  0.81131590  0.21996717  0.85372628     0.13800
H2790       H  0.85601078  0.21915657  0.80929609     0.13800
N2791       N  0.95155427  0.36629964  0.00606786    -0.35600
N2792       N  0.50214651  0.36802549  0.55456121    -0.56200
N2793       N  0.54738857  0.36083236  0.00259294    -0.35600
N2794       N  0.49831249  0.36207311  0.95255003    -0.56200
C2795       C  0.93394156  0.35715917  0.52939200     0.28000
C2796       C  0.93314961  0.35732107  0.98020602     0.28000
C2797       C  0.57018991  0.36526111  0.52904874     0.28000
C2798       C  0.56607251  0.35883962  0.97622142     0.28000
C2799       C  0.97621186  0.36252054  0.57260033     0.36600
C2800       C  0.52912383  0.36657622  0.57300437     0.36600
C2801       C  0.97524357  0.35704105  0.93714633     0.36600
C2802       C  0.52364944  0.35440164  0.93383596     0.36600
C2803       C  0.90282099  0.34881055  0.52009113    -0.20900
C2804       C  0.90257952  0.34892942  0.99033936    -0.20900
C2805       C  0.60187800  0.36240384  0.51891957    -0.20900
C2806       C  0.59827918  0.36086385  0.98515865    -0.20900
C2807       C  0.98638905  0.35942166  0.60447522    -0.22000
C2808       C  0.52094020  0.36241722  0.60519314    -0.22000
C2809       C  0.98453476  0.34892625  0.90613424    -0.22000
C2810       C  0.51325278  0.34673068  0.90283301    -0.22000
C2811       C  0.94625740  0.35106532  0.56074120    -0.17300
C2812       C  0.94435277  0.34963434  0.94899478    -0.17300
C2813       C  0.55502532  0.34866444  0.94564995    -0.17300
C2814       C  0.55970729  0.35858911  0.56077533    -0.17300
H2815       H  0.88340536  0.34087376  0.53553876     0.15600
H2816       H  0.88265101  0.34039724  0.97540112     0.15600
H2817       H  0.62329355  0.35987980  0.53379479     0.15600
H2818       H  0.61892383  0.35858485  0.96951801     0.15600
H2819       H  0.97198628  0.35245361  0.62500387     0.13900
H2820       H  0.53728941  0.35847189  0.62538347     0.13900
H2821       H  0.96905346  0.34158813  0.88617376     0.13900
H2822       H  0.52734954  0.33894193  0.88250352     0.13900
H2823       H  0.97554381  0.37324407  0.00567425     0.27100
H2824       H  0.52344358  0.35360114  0.00341813     0.27100
O2825       O  0.55313196  0.24358032  0.65439654    -0.74300
O2826       O  0.59095322  0.24827504  0.69473609    -0.53200
C2827       C  0.58263672  0.24382011  0.66492684     0.79400
O2828       O  0.94238695  0.33942670  0.74926566    -0.58900
O2829       O  0.90917934  0.29534904  0.74816458    -0.51900
C2830       C  0.91413344  0.32606839  0.74802481     0.71400
O2831       O  0.55160145  0.34313817  0.74412219    -0.73500
O2832       O  0.58851639  0.30302258  0.74037419    -0.54000
C2833       C  0.58070346  0.33300901  0.74070576     0.77400
O2834       O  0.94372917  0.24258384  0.65696975    -0.58600
O2835       O  0.91006004  0.24327564  0.70012505    -0.51700
C2836       C  0.91539894  0.24124619  0.66973015     0.74000
Zr2837     Zr  0.99928144  0.24973455  0.67923452     2.54700
O2838       O  0.99950052  0.29804929  0.64656991    -0.79200
O2839       O  0.99610253  0.21363490  0.63267127    -0.92600
Zr2840     Zr  0.99795810  0.31816202  0.74797866     2.64700
O2841       O  0.49735168  0.35519042  0.70327838    -0.97600
O2842       O  0.99654888  0.35860661  0.79070226    -0.79600
O2843       O  0.52462616  0.27985711  0.71553173    -0.83000
O2844       O  0.96730186  0.28340475  0.71272483    -2.17700
O2845       O  0.95134191  0.15596127  0.73875803    -0.66400
O2846       O  0.91375770  0.19570505  0.73987265    -0.50900
C2847       C  0.92211082  0.16613797  0.73642309     0.72400
O2848       O  0.55831692  0.24732290  0.83681279    -0.59300
O2849       O  0.59174222  0.25109457  0.79334533    -0.51200
C2850       C  0.58656429  0.24837901  0.82367898     0.74200
O2851       O  0.94599060  0.24759242  0.84027115    -0.70700
O2852       O  0.91115611  0.24437780  0.79739992    -0.49300
C2853       C  0.91712632  0.24476085  0.82792103     0.75600
O2854       O  0.56106596  0.15920994  0.74549695    -0.66000
O2855       O  0.59370712  0.20360077  0.74345606    -0.53200
C2856       C  0.58916111  0.17288179  0.74359968     0.74000
Zr2857     Zr  0.50470239  0.17927043  0.74714909     2.77500
O2858       O  0.50405001  0.14336089  0.79332358    -0.96700
O2859       O  0.50879177  0.13361585  0.71024204    -0.77600
Zr2860     Zr  0.50158708  0.24756906  0.81615778     2.70100
O2861       O  0.50336780  0.20454029  0.85595358    -0.78800
O2862       O  0.50192911  0.28767657  0.85901994    -0.97900
Zr2863     Zr  0.56057514  0.25136802  0.74472151     2.21500
Zr2864     Zr  0.94168417  0.24679688  0.74853060     2.11100
O2865       O  0.97174444  0.21245123  0.78349661    -2.46600
O2866       O  0.53418916  0.21555913  0.78112236    -0.78600
O2867       O  0.97657847  0.21842242  0.71822944    -0.70800
O2868       O  0.53080120  0.28388536  0.78164299    -2.31800
O2869       O  0.53184464  0.21416949  0.71087041    -2.28000
O2870       O  0.97389974  0.27930653  0.77896112    -0.72600
H2871       H  0.95198532  0.29529258  0.69979969     0.79400
H2872       H  0.54505280  0.29751295  0.79444544     0.80500
H2873       H  0.95799527  0.19861098  0.79622225     0.82700
H2874       H  0.54588511  0.20136162  0.69760933     0.80400
H2875       H  0.51870658  0.35205105  0.80286298     0.43400
H2876       H  0.98756530  0.31008331  0.84405479     0.42400
H2877       H  0.51950540  0.18938072  0.84741231     0.42000
H2878       H  0.98208958  0.13486136  0.79272583     0.40000
H2879       H  0.99984300  0.14887993  0.68720712     0.43100
H2880       H  0.51084649  0.19391306  0.63720958     0.37900
H2881       H  0.52097333  0.30313651  0.64533879     0.44000
H2882       H  0.01391006  0.35143974  0.68977419     0.40400
H2883       H  0.52131100  0.12768733  0.78890509     0.45300
H2884       H  0.00675376  0.22570388  0.61505014     0.44100
H2885       H  0.97620123  0.34979824  0.69048758     0.44200
H2886       H  0.51433135  0.27767620  0.87690117     0.44600
N2887       N  0.75593674  0.37803448  0.62337043    -0.02500
C2888       C  0.74502531  0.38290281  0.65392158     0.00100
C2889       C  0.73156105  0.35502816  0.66607163    -0.22800
C2890       C  0.73341857  0.33236935  0.64228081    -0.23000
C2891       C  0.74811415  0.34667713  0.61594718     0.00000
H2892       H  0.72223928  0.35117143  0.69012852     0.13800
H2893       H  0.72489993  0.30769999  0.64415525     0.13800
N2894       N  0.75123733  0.11896957  0.61763591    -0.02500
C2895       C  0.73620182  0.14685502  0.60940812     0.00100
C2896       C  0.71289233  0.15342519  0.63195067    -0.22800
C2897       C  0.71206236  0.12803690  0.65306476    -0.23000
C2898       C  0.73619915  0.10732496  0.64444721     0.00000
H2899       H  0.69891280  0.17501399  0.63373825     0.13800
H2900       H  0.69595009  0.12509060  0.67303524     0.13800
N2901       N  0.75657847  0.12587449  0.87457194    -0.03700
C2902       C  0.74008852  0.15266944  0.88287081     0.00100
C2903       C  0.71685590  0.15890062  0.85966536    -0.22800
C2904       C  0.71921434  0.13557536  0.83619641    -0.23000
C2905       C  0.74348643  0.11520825  0.84604380     0.00000
H2906       H  0.69898482  0.17736482  0.86055136     0.13800
H2907       H  0.70413308  0.13313283  0.81471790     0.13800
N2908       N  0.74565501  0.38335667  0.88202728    -0.02500
C2909       C  0.73190976  0.39106039  0.85306457     0.00100
C2910       C  0.71127050  0.36642973  0.84325380    -0.22800
C2911       C  0.71238573  0.34316637  0.86678284    -0.23000
C2912       C  0.73357480  0.35400924  0.89051918     0.00000
H2913       H  0.69795294  0.36484563  0.82061449     0.13800
H2914       H  0.70023386  0.31997563  0.86603650     0.13800
N2915       N  0.87517472  0.50935332  0.55636218    -0.35600
N2916       N  0.86386035  0.45563897  0.00889918    -0.56200
N2917       N  0.86050752  0.50312775  0.95846826    -0.35600
N2918       N  0.87320952  0.05665683  0.00530635    -0.56200
C2919       C  0.86664224  0.48512515  0.57653766     0.28000
C2920       C  0.87336622  0.03531635  0.57769805     0.28000
C2921       C  0.85717030  0.47621613  0.94032306     0.28000
C2922       C  0.85841486  0.02877221  0.94170124     0.28000
C2923       C  0.86187937  0.44030249  0.53593068     0.36600
C2924       C  0.85567502  0.43589538  0.98403247     0.36600
C2925       C  0.87239620  0.07550747  0.53257216     0.36600
C2926       C  0.86276314  0.07422780  0.97987388     0.36600
C2927       C  0.86280750  0.49734015  0.60754135    -0.20900
C2928       C  0.86702783  0.02850898  0.60985506    -0.20900
C2929       C  0.85674029  0.48425134  0.90775846    -0.20900
C2930       C  0.85605719  0.01723633  0.91030397    -0.20900
C2931       C  0.85412183  0.40863705  0.52792497    -0.22000
C2932       C  0.84978049  0.40522572  0.99503549    -0.22000
C2933       C  0.86653634  0.10675998  0.52241563    -0.22000
C2934       C  0.85946505  0.10613620  0.98895890    -0.22000
C2935       C  0.85646739  0.45382181  0.56687179    -0.17300
C2936       C  0.86472234  0.06504373  0.56390510    -0.17300
C2937       C  0.85180458  0.06058704  0.95035286    -0.17300
C2938       C  0.84745021  0.44624059  0.95270521    -0.17300
H2939       H  0.85477969  0.48478831  0.62882716     0.15600
H2940       H  0.86132017  0.04558289  0.62882616     0.15600
H2941       H  0.85244122  0.46859060  0.88719119     0.15600
H2942       H  0.85346310  0.03147887  0.88863924     0.15600
H2943       H  0.84831552  0.38930022  0.54440411     0.13900
H2944       H  0.84245108  0.38469385  0.98046830     0.13900
H2945       H  0.86378538  0.12800453  0.53736687     0.13900
H2946       H  0.85061974  0.12606922  0.97487667     0.13900
H2947       H  0.87802333  0.50789400  0.53156882     0.27100
H2948       H  0.85460733  0.50485123  0.98272191     0.27100
N2949       N  0.61775390  0.38344277  0.74768799    -0.02500
C2950       C  0.60719802  0.35602496  0.73223940     0.00100
C2951       C  0.62797158  0.34887771  0.70742136    -0.22800
C2952       C  0.65177195  0.37218781  0.70758244    -0.23000
C2953       C  0.64528321  0.39294055  0.73278594     0.00000
H2954       H  0.62616991  0.32819093  0.69147969     0.13800
H2955       H  0.67184293  0.37375182  0.69126694     0.13800
N2956       N  0.88631155  0.11652172  0.74324459    -0.02500
C2957       C  0.89589685  0.14321942  0.72697398     0.00100
C2958       C  0.87429708  0.14925030  0.70214426    -0.22800
C2959       C  0.85063763  0.12581609  0.70362556    -0.23000
C2960       C  0.85847836  0.10598986  0.72904878     0.00000
H2961       H  0.87554189  0.16868820  0.68500533     0.13800
H2962       H  0.82947194  0.12334320  0.68835615     0.13800
N2963       N  0.62550080  0.12290280  0.74970624    -0.02500
C2964       C  0.61895766  0.15329257  0.73884885     0.00100
C2965       C  0.64611393  0.16665073  0.72500673    -0.22800
C2966       C  0.67007775  0.14445935  0.72775361    -0.23000
C2967       C  0.65701488  0.11730247  0.74205161     0.00000
H2968       H  0.64874922  0.19074514  0.71538264     0.13800
H2969       H  0.69496358  0.14838796  0.72116309     0.13800
N2970       N  0.87869686  0.37673972  0.75372225    -0.02500
C2971       C  0.84782945  0.38347820  0.74410162     0.00100
C2972       C  0.83495504  0.35746438  0.72709786    -0.22800
C2973       C  0.85801418  0.33406534  0.72652538    -0.23000
C2974       C  0.88467037  0.34609073  0.74319036     0.00000
H2975       H  0.81112257  0.35563601  0.71621114     0.13800
H2976       H  0.85551174  0.31057843  0.71516766     0.13800
N2977       N  0.51294240  0.46025431  0.85740471    -0.35600
N2978       N  0.96189371  0.50558515  0.86108691    -0.56200
N2979       N  0.50579991  0.06058975  0.87205537    -0.35600
N2980       N  0.56182509  0.50928975  0.87274986    -0.56200
C2981       C  0.98897133  0.44046069  0.85174535     0.28000
C2982       C  0.53933849  0.44195611  0.86159438     0.28000
C2983       C  0.97941530  0.07561139  0.86397796     0.28000
C2984       C  0.53158823  0.08020081  0.86701114     0.28000
C2985       C  0.94486741  0.48003043  0.84978190     0.36600
C2986       C  0.93778940  0.03148419  0.85833089     0.36600
C2987       C  0.58159454  0.48470482  0.86499754     0.36600
C2988       C  0.57614140  0.03972148  0.86937198     0.36600
C2989       C  0.99928554  0.40893489  0.85196867    -0.20900
C2990       C  0.53070038  0.40970850  0.85796368    -0.20900
C2991       C  0.98819389  0.10757145  0.85973410    -0.20900
C2992       C  0.52100873  0.11095638  0.85992479    -0.20900
C2993       C  0.91344327  0.48854893  0.84294510    -0.22000
C2994       C  0.90718717  0.02132583  0.84848633    -0.22000
C2995       C  0.61250628  0.49624172  0.86020460    -0.22000
C2996       C  0.60812802  0.03200899  0.86422497    -0.22000
C2997       C  0.95819977  0.45020723  0.84150411    -0.17300
C2998       C  0.57103410  0.45329209  0.85644292    -0.17300
C2999       C  0.56349841  0.07008550  0.86101897    -0.17300
C3000       C  0.94945755  0.06291747  0.85302390    -0.17300
H3001       H  0.98534902  0.38758398  0.84579423     0.15600
H3002       H  0.54689757  0.38949249  0.85686350     0.15600
H3003       H  0.97271481  0.12712300  0.85236575     0.15600
H3004       H  0.53567380  0.13162585  0.85357793     0.15600
H3005       H  0.89431969  0.47337618  0.83319644     0.13900
H3006       H  0.88702119  0.03618976  0.84148464     0.13900
H3007       H  0.63319843  0.48297480  0.85232561     0.13900
H3008       H  0.62789614  0.04858774  0.85976662     0.13900
H3009       H  0.51337839  0.48464236  0.85215042     0.27100
H3010       H  0.50641453  0.03617372  0.87687182     0.27100
O3011       O  0.75056907  0.44053897  0.66086418    -0.74300
O3012       O  0.74774896  0.40724578  0.70449664    -0.53200
C3013       C  0.74854864  0.41235897  0.67401967     0.79400
O3014       O  0.84692102  0.05078737  0.74232214    -0.58900
O3015       O  0.80665320  0.08799027  0.74146307    -0.51900
C3016       C  0.83640113  0.07986813  0.73948014     0.71400
O3017       O  0.84178550  0.44128438  0.75032279    -0.73500
O3018       O  0.79756273  0.40819235  0.75095186    -0.54000
C3019       C  0.82828143  0.41307308  0.74972437     0.77400
O3020       O  0.74622718  0.05108873  0.65554092    -0.58600
O3021       O  0.74980138  0.08832573  0.69637950    -0.51700
C3022       C  0.74590244  0.08041727  0.66634463     0.74000
Zr3023     Zr  0.75047786  0.99692300  0.68062331     2.54700
O3024       O  0.79217833  0.99811929  0.63991873    -0.79200
O3025       O  0.70771631  0.99199416  0.63997985    -0.92600
Zr3026     Zr  0.82170354  0.99668270  0.74761349     2.64700
O3027       O  0.85554739  0.99070864  0.70028622    -0.97600
O3028       O  0.86909617  0.99944222  0.78250741    -0.79600
O3029       O  0.78452350  0.46629809  0.71572259    -0.83000
O3030       O  0.78762573  0.02745810  0.71281738    -2.17700
O3031       O  0.66395428  0.05930250  0.74951871    -0.66400
O3032       O  0.70776487  0.09276713  0.74708910    -0.50900
C3033       C  0.67708206  0.08771587  0.74746025     0.72400
O3034       O  0.74372185  0.44740582  0.84260131    -0.59300
O3035       O  0.74133802  0.41086809  0.80123185    -0.51200
C3036       C  0.74007957  0.41840040  0.83134477     0.74200
O3037       O  0.75204287  0.05834693  0.83869138    -0.70700
O3038       O  0.75618342  0.09279453  0.79591374    -0.49300
C3039       C  0.75251039  0.08689237  0.82617451     0.75600
O3040       O  0.65765429  0.44858990  0.74506931    -0.66000
O3041       O  0.69771537  0.41121189  0.74578774    -0.53200
C3042       C  0.66796792  0.41932594  0.74282255     0.74000
Zr3043     Zr  0.68322808  0.50293287  0.74945481     2.77500
O3044       O  0.64318850  0.50084856  0.79189626    -0.96700
O3045       O  0.64368016  0.50716142  0.70572085    -0.77600
Zr3046     Zr  0.75273867  0.50146292  0.81813518     2.70100
O3047       O  0.71752207  0.50317941  0.86489773    -0.78800
O3048       O  0.80092914  0.50071178  0.85216966    -0.97900
Zr3049     Zr  0.74864452  0.44015840  0.75177430     2.21500
Zr3050     Zr  0.75576925  0.05994075  0.74753492     2.11100
O3051       O  0.72096662  0.03308195  0.78467881    -2.46600
O3052       O  0.72002179  0.47610877  0.78090511    -0.78600
O3053       O  0.71854626  0.03043230  0.71445868    -0.70800
O3054       O  0.78608415  0.46836927  0.78571589    -2.31800
O3055       O  0.71520718  0.46972912  0.71541323    -2.28000
O3056       O  0.79089027  0.03048300  0.78263346    -0.72600
H3057       H  0.80035590  0.04068155  0.69851087     0.79400
H3058       H  0.79835624  0.45391219  0.79909534     0.80500
H3059       H  0.70849355  0.04799217  0.79731999     0.82700
H3060       H  0.70169156  0.45580827  0.70213856     0.80400
H3061       H  0.88418397  0.49730903  0.77521365     0.43400
H3062       H  0.82285476  0.99773124  0.83521398     0.42400
H3063       H  0.69763242  0.51357153  0.85680864     0.42000
H3064       H  0.64776235  0.02438488  0.80454929     0.40000
H3065       H  0.65071925  0.99054946  0.69212926     0.43100
H3066       H  0.69592876  0.51001082  0.64118323     0.37900
H3067       H  0.79103624  0.47982228  0.62818695     0.44000
H3068       H  0.84549644  0.97249865  0.68818772     0.40400
H3069       H  0.62231330  0.49819965  0.78025429     0.45300
H3070       H  0.69274367  0.00969459  0.64508733     0.44100
H3071       H  0.85092541  0.00987272  0.68690294     0.44200
H3072       H  0.81920182  0.50214633  0.83700909     0.44600
C3073       C  0.89500675  0.39162778  0.80934676    -0.11300
C3074       C  0.89862558  0.39529125  0.77571480     0.05700
C3075       C  0.92254270  0.41641215  0.76403138    -0.06600
C3076       C  0.94273132  0.43308534  0.78581395    -0.07300
C3077       C  0.93930484  0.42911437  0.81920092    -0.01900
C3078       C  0.91529875  0.40859605  0.83102123     0.04900
N3079       N  0.91166539  0.40575302  0.86514794     0.67400
H3080       H  0.87625108  0.37599741  0.81851754     0.16300
H3081       H  0.96066918  0.44980177  0.77669345     0.16100
N3082       N  0.92591646  0.42206689  0.73018710     0.75200
O3083       O  0.90014640  0.42935495  0.88021469    -0.38300
O3084       O  0.93163164  0.38849776  0.87999042    -0.38200
O3085       O  0.91295326  0.44665067  0.71806948    -0.38900
O3086       O  0.94884137  0.40900389  0.71541314    -0.39000
C3087       C  0.57322528  0.07178161  0.80229724    -0.11300
C3088       C  0.57947689  0.08558664  0.83292310     0.05700
C3089       C  0.60145120  0.11152109  0.83573442    -0.06600
C3090       C  0.61655622  0.12316907  0.80795141    -0.07300
C3091       C  0.61005367  0.10939593  0.77739970    -0.01900
C3092       C  0.58810647  0.08358770  0.77457072     0.04900
N3093       N  0.58088263  0.06893586  0.74395026     0.67400
H3094       H  0.55701348  0.05122469  0.80010522     0.16300
H3095       H  0.63353933  0.14312036  0.81006360     0.16100
N3096       N  0.60923062  0.12579548  0.86639750     0.75200
O3097       O  0.59288253  0.04189054  0.73748701    -0.38300
O3098       O  0.55619786  0.07781555  0.72841393    -0.38200
O3099       O  0.63477146  0.11745260  0.88081826    -0.38900
O3100       O  0.59646640  0.15222275  0.87394049    -0.39000
C3101       C  0.90734454  0.09830525  0.82927954    -0.11300
C3102       C  0.93451727  0.07921618  0.82500838     0.05700
C3103       C  0.94535255  0.07215836  0.79339662    -0.06600
C3104       C  0.92915423  0.08471090  0.76670087    -0.07300
C3105       C  0.90189417  0.10343267  0.77101448    -0.01900
C3106       C  0.89077964  0.11007861  0.80229258     0.04900
N3107       N  0.86318277  0.12952026  0.80678164     0.67400
H3108       H  0.89860220  0.10326341  0.85342716     0.16300
H3109       H  0.93749165  0.07952045  0.74245674     0.16100
N3110       N  0.97204402  0.05136834  0.78801571     0.75200
O3111       O  0.83683671  0.11666589  0.81502713    -0.38300
O3112       O  0.86674260  0.15965422  0.80843772    -0.38200
O3113       O  0.96677894  0.02168472  0.78338144    -0.38900
O3114       O  0.99845866  0.06347601  0.77900945    -0.39000
C3115       C  0.62303323  0.39828813  0.80487118    -0.11300
C3116       C  0.60519948  0.39889005  0.77575690     0.05700
C3117       C  0.57913999  0.41986579  0.77266289    -0.06600
C3118       C  0.57042027  0.43883874  0.79886775    -0.07300
C3119       C  0.58686521  0.43701942  0.82877462    -0.01900
C3120       C  0.61417169  0.41719757  0.83151648     0.04900
N3121       N  0.63410652  0.41727015  0.86000554     0.67400
H3122       H  0.64438174  0.38360040  0.80645949     0.16300
H3123       H  0.54990055  0.45464153  0.79617502     0.16100
N3124       N  0.56227040  0.42338594  0.74257057     0.75200
O3125       O  0.62902793  0.39659722  0.88166199    -0.38300
O3126       O  0.66141878  0.43091453  0.85904447    -0.38200
O3127       O  0.53411143  0.41184101  0.73969088    -0.38900
O3128       O  0.57128403  0.44511785  0.72330551    -0.39000
C3129       C  0.76443284  0.41500876  0.92805393    -0.11300
C3130       C  0.77099724  0.40031770  0.89852901     0.05700
C3131       C  0.80263441  0.40043167  0.88677897    -0.06600
C3132       C  0.82758508  0.41278970  0.90607727    -0.07300
C3133       C  0.82121480  0.42867430  0.93510114    -0.01900
C3134       C  0.78904518  0.42993741  0.94600014     0.04900
N3135       N  0.78102379  0.44462234  0.97606287     0.67400
H3136       H  0.74000804  0.41483577  0.93712081     0.16300
H3137       H  0.85181239  0.41040192  0.89802017     0.16100
N3138       N  0.80965455  0.38952339  0.85486390     0.75200
O3139       O  0.76604820  0.47086567  0.97577385    -0.38300
O3140       O  0.77793031  0.42655351  0.00021509    -0.38200
O3141       O  0.81756788  0.40992103  0.83379495    -0.38900
O3142       O  0.81662318  0.36045638  0.85036264    -0.39000
C3143       C  0.77354387  0.08017705  0.90627483    -0.11300
C3144       C  0.78074486  0.11022479  0.89355217     0.05700
C3145       C  0.81118034  0.12434881  0.89994060    -0.06600
C3146       C  0.83472350  0.10721395  0.91671259    -0.07300
C3147       C  0.82731453  0.07745382  0.93033749    -0.01900
C3148       C  0.79611975  0.06394371  0.92496963     0.04900
N3149       N  0.78639528  0.03402990  0.93865758     0.67400
H3150       H  0.74978815  0.06963979  0.90235159     0.16300
H3151       H  0.85855961  0.11775487  0.92003825     0.16100
N3152       N  0.81844677  0.15647908  0.89095584     0.75200
O3153       O  0.76971598  0.03481150  0.96398272    -0.38300
O3154       O  0.78347297  0.01000750  0.91996898    -0.38200
O3155       O  0.81625458  0.17796721  0.91248769    -0.38900
O3156       O  0.83826700  0.16063803  0.86847632    -0.39000
C3157       C  0.83730927  0.10886391  0.59380584    -0.11300
C3158       C  0.83537766  0.07939753  0.57768330     0.05700
C3159       C  0.80518344  0.06346716  0.57415113    -0.06600
C3160       C  0.77790750  0.07651838  0.58817171    -0.07300
C3161       C  0.77974070  0.10627985  0.60367075    -0.01900
C3162       C  0.80944798  0.12296918  0.60559987     0.04900
N3163       N  0.81131829  0.15533520  0.61663602     0.67400
H3164       H  0.86023694  0.12150598  0.59606446     0.16300
H3165       H  0.75490186  0.06402562  0.58598182     0.16100
N3166       N  0.80165180  0.03450367  0.55564794     0.75200
O3167       O  0.81896311  0.16094568  0.64571814    -0.38300
O3168       O  0.81587508  0.17692666  0.59583074    -0.38200
O3169       O  0.79252922  0.00915330  0.56966652    -0.38900
O3170       O  0.79833254  0.03646260  0.52533890    -0.39000
C3171       C  0.81096541  0.40039061  0.62625654    -0.11300
C3172       C  0.78112737  0.39750907  0.60970715     0.05700
C3173       C  0.77478018  0.41802598  0.58373895    -0.06600
C3174       C  0.79952934  0.43734249  0.57171304    -0.07300
C3175       C  0.83053516  0.43765065  0.58581010    -0.01900
C3176       C  0.83561838  0.42114594  0.61522521     0.04900
N3177       N  0.86520245  0.42452117  0.63376819     0.67400
H3178       H  0.81483829  0.38638184  0.64800236     0.16300
H3179       H  0.79474053  0.45226158  0.55089622     0.16100
N3180       N  0.74289905  0.42117186  0.57086997     0.75200
O3181       O  0.86556829  0.41821280  0.66366144    -0.38300
O3182       O  0.89136649  0.43228681  0.62035221    -0.38200
O3183       O  0.72681175  0.44579313  0.57800509    -0.38900
O3184       O  0.73425117  0.40424594  0.54685118    -0.39000
C3185       C  0.90251803  0.33005347  0.90893496    -0.11300
C3186       C  0.92680578  0.32326934  0.93160517     0.05700
C3187       C  0.93611750  0.29096273  0.93660374    -0.06600
C3188       C  0.92090937  0.26611280  0.91943182    -0.07300
C3189       C  0.89791976  0.27322656  0.89602090    -0.01900
C3190       C  0.88945682  0.30528151  0.88982060     0.04900
N3191       N  0.86899415  0.31260076  0.86290111     0.67400
H3192       H  0.89393933  0.35431792  0.90586930     0.16300
H3193       H  0.92758912  0.24130925  0.92368366     0.16100
N3194       N  0.96230358  0.28314474  0.95761912     0.75200
O3195       O  0.88175374  0.31765469  0.83575941    -0.38300
O3196       O  0.83963918  0.30449910  0.86380605    -0.38200
O3197       O  0.95635803  0.27153875  0.98512109    -0.38900
O3198       O  0.98938548  0.27811461  0.94511424    -0.39000
C3199       C  0.59331715  0.27017215  0.92076684    -0.11300
C3200       C  0.60577905  0.27827635  0.89081675     0.05700
C3201       C  0.60248847  0.30992411  0.87894093    -0.06600
C3202       C  0.58744312  0.33312784  0.89788352    -0.07300
C3203       C  0.57487593  0.32505983  0.92804394    -0.01900
C3204       C  0.57791593  0.29312880  0.93950773     0.04900
N3205       N  0.56476180  0.28305543  0.96961929     0.67400
H3206       H  0.59563469  0.24574691  0.92960032     0.16300
H3207       H  0.58418198  0.35715035  0.88850630     0.16100
N3208       N  0.61379805  0.31874340  0.84763396     0.75200
O3209       O  0.58248242  0.28481601  0.99457163    -0.38300
O3210       O  0.54231442  0.26235470  0.96900505    -0.38200
O3211       O  0.59364440  0.32620101  0.82588883    -0.38900
O3212       O  0.64287404  0.32707608  0.84443565    -0.39000
C3213       C  0.93660244  0.29206314  0.56596598    -0.11300
C3214       C  0.93116778  0.32333797  0.57783576     0.05700
C3215       C  0.90957933  0.32746116  0.60325071    -0.06600
C3216       C  0.89318810  0.30112413  0.61588620    -0.07300
C3217       C  0.89820215  0.27015986  0.60387360    -0.01900
C3218       C  0.92059162  0.26535852  0.57910219     0.04900
N3219       N  0.92739658  0.23386440  0.56718279     0.67400
H3220       H  0.95305161  0.28852916  0.54612697     0.16300
H3221       H  0.87570444  0.30483674  0.63485135     0.16100
N3222       N  0.90031988  0.35849940  0.61332074     0.75200
O3223       O  0.95188256  0.21948999  0.57794866    -0.38300
O3224       O  0.91511515  0.22484193  0.54052694    -0.38200
O3225       O  0.91034534  0.36895665  0.64041161    -0.38900
O3226       O  0.87423129  0.36874999  0.60170458    -0.39000
C3227       C  0.60663773  0.33649426  0.59173903    -0.11300
C3228       C  0.57629714  0.33176271  0.57724271     0.05700
C3229       C  0.56253258  0.30043251  0.57612956    -0.06600
C3230       C  0.57871649  0.27499107  0.59022619    -0.07300
C3231       C  0.60877412  0.27964082  0.60495630    -0.01900
C3232       C  0.62339213  0.31038738  0.60475415     0.04900
N3233       N  0.65575543  0.31520104  0.61557580     0.67400
H3234       H  0.61773652  0.36025175  0.59198426     0.16300
H3235       H  0.56785759  0.25111824  0.58950164     0.16100
N3236       N  0.53202188  0.29384552  0.56097272     0.75200
O3237       O  0.66076167  0.32730217  0.64322458    -0.38300
O3238       O  0.67736951  0.31789060  0.59452437    -0.38200
O3239       O  0.53134664  0.27890786  0.53434573    -0.38900
O3240       O  0.50751426  0.29219604  0.57861133    -0.39000
O3241       O  0.84114182  0.74572279  0.05570365    -0.74300
O3242       O  0.79776434  0.74678064  0.08906776    -0.53200
C3243       C  0.82818931  0.74508069  0.08407059     0.79400
O3244       O  0.74829368  0.84075052  0.44532690    -0.58900
O3245       O  0.74873530  0.79868585  0.40950717    -0.51900
C3246       C  0.74732733  0.82890688  0.41616601     0.71400
O3247       O  0.75541736  0.84007818  0.05713195    -0.73500
O3248       O  0.75246597  0.79647640  0.09001611    -0.54000
C3249       C  0.75404393  0.82698183  0.08547962     0.77400
O3250       O  0.84155455  0.74546247  0.44383282    -0.58600
O3251       O  0.79902408  0.74785635  0.40860258    -0.51700
C3252       C  0.82926857  0.74540863  0.41471211     0.74000
Zr3253     Zr  0.81881529  0.74812287  0.50010450     2.54700
O3254       O  0.85584411  0.79332274  0.50160152    -0.79200
O3255       O  0.86124645  0.70803522  0.50123408    -0.92600
Zr3256     Zr  0.75060444  0.81768586  0.50116691     2.64700
O3257       O  0.79262274  0.85854057  0.50083172    -0.97600
O3258       O  0.70837339  0.85795852  0.50250672    -0.79600
O3259       O  0.78136052  0.77772235  0.02560336    -0.83000
O3260       O  0.78544839  0.78396249  0.47025107    -2.17700
O3261       O  0.74620025  0.65767083  0.44366516    -0.66400
O3262       O  0.74544133  0.69999290  0.40850137    -0.50900
C3263       C  0.74403265  0.66975594  0.41497628     0.72400
O3264       O  0.65709387  0.74466114  0.05022391    -0.59300
O3265       O  0.69806798  0.74471342  0.08751991    -0.51200
C3266       C  0.66799462  0.74285462  0.07956915     0.74200
O3267       O  0.66026715  0.74815658  0.44082398    -0.70700
O3268       O  0.70324836  0.74873978  0.40687714    -0.49300
C3269       C  0.67298367  0.74757468  0.41232062     0.75600
O3270       O  0.74423207  0.65743739  0.05332505    -0.66000
O3271       O  0.74320299  0.69952240  0.08894091    -0.53200
C3272       C  0.74229744  0.66929567  0.08229342     0.74000
Zr3273     Zr  0.74703735  0.68068803  0.99795595     2.77500
O3274       O  0.70317441  0.64121490  0.99873217    -0.96700
O3275       O  0.78916070  0.64025965  0.99778604    -0.77600
Zr3276     Zr  0.68158249  0.75192136  0.99640254     2.70100
O3277       O  0.63445136  0.71648581  0.99377205    -0.78800
O3278       O  0.64830321  0.79981557  0.99677621    -0.97900
Zr3279     Zr  0.74856587  0.74832297  0.05794092     2.21500
Zr3280     Zr  0.75066045  0.74922867  0.43983218     2.11100
O3281       O  0.71477008  0.71395566  0.46754148    -2.46600
O3282       O  0.71748790  0.71953349  0.02291476    -0.78600
O3283       O  0.78462561  0.71329608  0.46870470    -0.70800
O3284       O  0.71524313  0.78549370  0.02998385    -2.31800
O3285       O  0.78313843  0.71253145  0.02995065    -2.28000
O3286       O  0.71589046  0.78423370  0.46853710    -0.72600
H3287       H  0.79853819  0.79700588  0.45608072     0.79400
H3288       H  0.70256602  0.79837666  0.04451633     0.80500
H3289       H  0.70144144  0.70114197  0.45299493     0.82700
H3290       H  0.79525650  0.69878843  0.04464291     0.80400
H3291       H  0.69244054  0.84831208  0.99014759     0.43400
H3292       H  0.62075148  0.78005921  0.49301989     0.42400
H3293       H  0.61589270  0.73128785  0.99262078     0.42000
H3294       H  0.69208341  0.64612492  0.51899589     0.40000
H3295       H  0.78222585  0.62151882  0.51059364     0.43100
H3296       H  0.84909419  0.68858129  0.97853716     0.37900
H3297       H  0.88287151  0.76951314  0.99645860     0.44000
H3298       H  0.78131989  0.87871603  0.49532850     0.40400
H3299       H  0.69018586  0.64582768  0.97905773     0.45300
H3300       H  0.85464371  0.69196746  0.48455875     0.44100
H3301       H  0.79915406  0.86126263  0.52382420     0.44200
H3302       H  0.63983141  0.80105751  0.01907566     0.44600
N3303       N  0.62473439  0.75445964  0.12177484    -0.02500
C3304       C  0.61089022  0.73636225  0.14552628     0.00100
C3305       C  0.62297000  0.70552437  0.14493640    -0.22800
C3306       C  0.64422260  0.70428615  0.11963118    -0.23000
C3307       C  0.64540178  0.73457644  0.10610944     0.00000
H3308       H  0.61562725  0.68554465  0.16001881     0.13800
H3309       H  0.65595383  0.68301304  0.11061532     0.13800
N3310       N  0.87990327  0.74238240  0.11934221    -0.02500
C3311       C  0.88482467  0.73367220  0.15078135     0.00100
C3312       C  0.85594801  0.72510624  0.16491636    -0.22800
C3313       C  0.83260705  0.72818975  0.14185521    -0.23000
C3314       C  0.84756038  0.73853576  0.11395020     0.00000
H3315       H  0.85179918  0.71944335  0.19010915     0.13800
H3316       H  0.80706467  0.72409938  0.14544225     0.13800
N3317       N  0.62231835  0.75252232  0.37720116    -0.02500
C3318       C  0.65288441  0.74255460  0.38289757     0.00100
C3319       C  0.66456847  0.72699083  0.35589752    -0.22800
C3320       C  0.64003406  0.72558513  0.33363501    -0.23000
C3321       C  0.61430997  0.74157951  0.34704958     0.00000
H3322       H  0.68894741  0.71904736  0.35206382     0.13800
H3323       H  0.64142928  0.71557047  0.30941720     0.13800
N3324       N  0.88066213  0.74565428  0.37928022    -0.02500
C3325       C  0.84903721  0.73869499  0.38510209     0.00100
C3326       C  0.83479944  0.72660309  0.35712363    -0.22800
C3327       C  0.85825917  0.72476627  0.33420324    -0.23000
C3328       C  0.88658993  0.73635127  0.34814068     0.00000
H3329       H  0.80962064  0.72028943  0.35343621     0.13800
H3330       H  0.85438496  0.71766212  0.30920041     0.13800
N3331       N  0.95200328  0.86252072  0.50549715    -0.35600
N3332       N  0.50166080  0.87032938  0.05687509    -0.56200
N3333       N  0.55334981  0.87032802  0.50461161    -0.35600
N3334       N  0.50113862  0.86254000  0.45566630    -0.56200
C3335       C  0.93249559  0.85467937  0.03265522     0.28000
C3336       C  0.93261906  0.85580655  0.47976395     0.28000
C3337       C  0.56812976  0.86496514  0.03067704     0.28000
C3338       C  0.57060600  0.86065972  0.47870766     0.28000
C3339       C  0.97567245  0.86151089  0.07518293     0.36600
C3340       C  0.52844217  0.86695710  0.07538759     0.36600
C3341       C  0.97321415  0.85746925  0.43584906     0.36600
C3342       C  0.52695382  0.85979234  0.43655107     0.36600
C3343       C  0.90170153  0.84443178  0.02395220    -0.20900
C3344       C  0.90186615  0.84902304  0.49027879    -0.20900
C3345       C  0.59968992  0.86366771  0.02000492    -0.20900
C3346       C  0.60225130  0.85552302  0.48832855    -0.20900
C3347       C  0.98630562  0.85871317  0.10697490    -0.22000
C3348       C  0.52003442  0.86157712  0.10731162    -0.22000
C3349       C  0.98217993  0.85341669  0.40386800    -0.22000
C3350       C  0.51708049  0.85519649  0.40474100    -0.22000
C3351       C  0.94568095  0.84950918  0.06392831    -0.17300
C3352       C  0.94297233  0.84840032  0.44819598    -0.17300
C3353       C  0.55763852  0.85120451  0.44816153    -0.17300
C3354       C  0.55909348  0.85959379  0.06295014    -0.17300
H3355       H  0.88305568  0.83547270  0.03980354     0.15600
H3356       H  0.88137595  0.84207049  0.47530102     0.15600
H3357       H  0.62149014  0.86372599  0.03462594     0.15600
H3358       H  0.62218062  0.84737188  0.47398441     0.15600
H3359       H  0.97204175  0.85270713  0.12785990     0.13900
H3360       H  0.53609613  0.85621112  0.12738283     0.13900
H3361       H  0.96693318  0.84757439  0.38323833     0.13900
H3362       H  0.53236501  0.85064880  0.38422179     0.13900
H3363       H  0.97649167  0.86631393  0.50499433     0.27100
H3364       H  0.52905942  0.87543427  0.50475611     0.27100
O3365       O  0.55506208  0.74563648  0.15664502    -0.74300
O3366       O  0.59209287  0.74913132  0.19790320    -0.53200
C3367       C  0.58436964  0.74561176  0.16776620     0.79400
O3368       O  0.94282674  0.83902208  0.24579252    -0.58900
O3369       O  0.90904068  0.79524865  0.24525818    -0.51900
C3370       C  0.91446658  0.82594855  0.24403701     0.71400
O3371       O  0.55178685  0.84540899  0.24432198    -0.73500
O3372       O  0.58875802  0.80512267  0.24349443    -0.54000
C3373       C  0.58095812  0.83504912  0.24201340     0.77400
O3374       O  0.94276617  0.74024428  0.15842501    -0.58600
O3375       O  0.90859015  0.74248668  0.20122589    -0.51700
C3376       C  0.91424606  0.73946671  0.17098181     0.74000
Zr3377     Zr  0.99912910  0.74765717  0.17932044     2.54700
O3378       O  0.99691612  0.79484212  0.14524301    -0.79200
O3379       O  0.99640726  0.71088521  0.13321334    -0.92600
Zr3380     Zr  0.99829763  0.81768481  0.24748297     2.64700
O3381       O  0.49391760  0.85581164  0.20272663    -0.97600
O3382       O  0.99802718  0.85876574  0.28958755    -0.79600
O3383       O  0.52964633  0.78573740  0.21271816    -0.83000
O3384       O  0.96830469  0.78147932  0.21333978    -2.17700
O3385       O  0.95175241  0.65494281  0.23966161    -0.66400
O3386       O  0.91390746  0.69455662  0.24055783    -0.50900
C3387       C  0.92252380  0.66505965  0.23698984     0.72400
O3388       O  0.55684168  0.74691692  0.33938407    -0.59300
O3389       O  0.59158468  0.75364859  0.29728347    -0.51200
C3390       C  0.58543688  0.74881960  0.32724257     0.74200
O3391       O  0.94492083  0.74490635  0.34037243    -0.70700
O3392       O  0.91005108  0.74231141  0.29740522    -0.49300
C3393       C  0.91606340  0.74207960  0.32793150     0.75600
O3394       O  0.56216359  0.66189075  0.24966009    -0.66000
O3395       O  0.59492103  0.70632112  0.24814488    -0.53200
C3396       C  0.59031569  0.67562500  0.24834679     0.74000
Zr3397     Zr  0.50527054  0.68095218  0.25010325     2.77500
O3398       O  0.50435165  0.64515040  0.29647522    -0.96700
O3399       O  0.51068432  0.63548539  0.21316850    -0.77600
Zr3400     Zr  0.50088675  0.75081641  0.31788950     2.70100
O3401       O  0.50168893  0.71446408  0.36399200    -0.78800
O3402       O  0.50199861  0.79756002  0.35329693    -0.97900
Zr3403     Zr  0.56121911  0.75348090  0.24771724     2.21500
Zr3404     Zr  0.94101110  0.74608263  0.24890756     2.11100
O3405       O  0.97202609  0.71260342  0.28389686    -2.46600
O3406       O  0.53373107  0.71819434  0.28383089    -0.78600
O3407       O  0.97209954  0.71229861  0.21501356    -0.70800
O3408       O  0.53040966  0.78646494  0.28313841    -2.31800
O3409       O  0.53266308  0.71600301  0.21414002    -2.28000
O3410       O  0.96885409  0.78322935  0.28319919    -0.72600
H3411       H  0.95324398  0.79327734  0.20003958     0.79400
H3412       H  0.54448072  0.80029623  0.29597282     0.80500
H3413       H  0.95833641  0.69875257  0.29666763     0.82700
H3414       H  0.54707995  0.70317791  0.20131284     0.80400
H3415       H  0.49700523  0.88105355  0.27620989     0.43400
H3416       H  0.02469067  0.80071780  0.35678577     0.42400
H3417       H  0.50442863  0.69281017  0.35427488     0.42000
H3418       H  0.98387321  0.63300452  0.29409717     0.40000
H3419       H  0.00582311  0.64268530  0.19190356     0.43100
H3420       H  0.48208694  0.69179025  0.14380053     0.37900
H3421       H  0.47663802  0.79267357  0.13333096     0.44000
H3422       H  0.01466096  0.84982808  0.18888366     0.40400
H3423       H  0.52115696  0.62902931  0.29190107     0.45300
H3424       H  0.00749340  0.72243078  0.11552310     0.44100
H3425       H  0.97700699  0.85018393  0.19047757     0.44200
H3426       H  0.49416588  0.81533557  0.33948672     0.44600
N3427       N  0.75704963  0.87764711  0.12336926    -0.02500
C3428       C  0.74608134  0.88232365  0.15395654     0.00100
C3429       C  0.73385186  0.85402007  0.16638190    -0.22800
C3430       C  0.73588856  0.83145118  0.14255317    -0.23000
C3431       C  0.74994855  0.84610848  0.11603047     0.00000
H3432       H  0.72564423  0.84969454  0.19074383     0.13800
H3433       H  0.72804965  0.80657568  0.14459844     0.13800
N3434       N  0.75024131  0.61947873  0.11811052    -0.02500
C3435       C  0.73606624  0.64790299  0.11044124     0.00100
C3436       C  0.71435366  0.65588546  0.13410464    -0.22800
C3437       C  0.71348586  0.63081155  0.15552347    -0.23000
C3438       C  0.73605220  0.60881629  0.14576004     0.00000
H3439       H  0.70159951  0.67820882  0.13644198     0.13800
H3440       H  0.69858924  0.62906060  0.17657270     0.13800
N3441       N  0.75507609  0.62357817  0.37626415    -0.03700
C3442       C  0.73709461  0.64839827  0.38702762     0.00100
C3443       C  0.71144381  0.65325517  0.36614792    -0.22800
C3444       C  0.71412486  0.63137546  0.34129111    -0.23000
C3445       C  0.74095544  0.61317613  0.34823492     0.00000
H3446       H  0.69197221  0.66976811  0.36956635     0.13800
H3447       H  0.69756374  0.62820638  0.32103375     0.13800
N3448       N  0.75129258  0.88073497  0.38192944    -0.02500
C3449       C  0.73950181  0.88921700  0.35215547     0.00100
C3450       C  0.72230319  0.86342122  0.33905261    -0.22800
C3451       C  0.72418610  0.83861357  0.36064460    -0.23000
C3452       C  0.74121222  0.84988666  0.38737237     0.00000
H3453       H  0.71089657  0.86215432  0.31534901     0.13800
H3454       H  0.71439663  0.81457862  0.35695845     0.13800
N3455       N  0.87825265  0.00825690  0.05963342    -0.35600
N3456       N  0.86642755  0.95535418  0.51372885    -0.56200
N3457       N  0.85802429  0.00296176  0.46386748    -0.35600
N3458       N  0.87382876  0.55825928  0.50303068    -0.56200
C3459       C  0.86958205  0.98411316  0.07993453     0.28000
C3460       C  0.86999325  0.53505129  0.07346160     0.28000
C3461       C  0.85441289  0.97591085  0.44609629     0.28000
C3462       C  0.86366453  0.53012635  0.43803357     0.28000
C3463       C  0.86637726  0.93909039  0.03976756     0.36600
C3464       C  0.85677389  0.93547812  0.48949017     0.36600
C3465       C  0.86916334  0.57569825  0.02876330     0.36600
C3466       C  0.86461945  0.57549160  0.47689821     0.36600
C3467       C  0.86465539  0.99655208  0.11063841    -0.20900
C3468       C  0.86381046  0.52813823  0.10561191    -0.20900
C3469       C  0.85225071  0.98339477  0.41355060    -0.20900
C3470       C  0.86258046  0.51909300  0.40640601    -0.20900
C3471       C  0.85936770  0.90716519  0.03218198    -0.22000
C3472       C  0.85149250  0.90489193  0.50091341    -0.22000
C3473       C  0.86241990  0.60670149  0.01858945    -0.22000
C3474       C  0.85879212  0.60709831  0.48577636    -0.22000
C3475       C  0.86033278  0.95249369  0.07053556    -0.17300
C3476       C  0.86111247  0.56470141  0.05982177    -0.17300
C3477       C  0.85579557  0.56160479  0.44680619    -0.17300
C3478       C  0.84640074  0.94581568  0.45889943    -0.17300
H3479       H  0.85632114  0.98399937  0.13180794     0.15600
H3480       H  0.85827946  0.54515086  0.12469462     0.15600
H3481       H  0.84714588  0.96706357  0.39373383     0.15600
H3482       H  0.86015473  0.53362203  0.38487733     0.15600
H3483       H  0.85497920  0.88776077  0.04901146     0.13900
H3484       H  0.84320073  0.88425289  0.48711183     0.13900
H3485       H  0.85743561  0.62749600  0.03352174     0.13900
H3486       H  0.85008784  0.62661762  0.47100497     0.13900
H3487       H  0.88209443  0.00662350  0.03493033     0.27100
H3488       H  0.85349529  0.00465024  0.48845953     0.27100
N3489       N  0.61709408  0.88642452  0.24558179    -0.02500
C3490       C  0.60789975  0.85724468  0.23286610     0.00100
C3491       C  0.63095667  0.84707043  0.21137128    -0.22800
C3492       C  0.65493179  0.87007191  0.21119891    -0.23000
C3493       C  0.64637563  0.89366504  0.23288061     0.00000
H3494       H  0.63090888  0.82436814  0.19838248     0.13800
H3495       H  0.67676676  0.86934398  0.19744854     0.13800
N3496       N  0.88687842  0.61546695  0.24312151    -0.02500
C3497       C  0.89652905  0.64222175  0.22705927     0.00100
C3498       C  0.87411696  0.64950662  0.20341055    -0.22800
C3499       C  0.84949162  0.62725796  0.20583745    -0.23000
C3500       C  0.85782302  0.60661774  0.23036351     0.00000
H3501       H  0.87533523  0.66934383  0.18682091     0.13800
H3502       H  0.82725043  0.62624778  0.19204187     0.13800
N3503       N  0.62615855  0.62539272  0.25432882    -0.02500
C3504       C  0.62017428  0.65609482  0.24416427     0.00100
C3505       C  0.64752559  0.66930895  0.23058968    -0.22800
C3506       C  0.67098945  0.64653497  0.23252805    -0.23000
C3507       C  0.65743663  0.61927060  0.24621217     0.00000
H3508       H  0.65051481  0.69349341  0.22129413     0.13800
H3509       H  0.69583770  0.65004170  0.22561738     0.13800
N3510       N  0.87973886  0.87729829  0.24728317    -0.02500
C3511       C  0.84914958  0.88417979  0.23706294     0.00100
C3512       C  0.83650318  0.85830200  0.21970424    -0.22800
C3513       C  0.85941125  0.83465933  0.21982737    -0.23000
C3514       C  0.88566910  0.84644504  0.23731290     0.00000
H3515       H  0.81274321  0.85651132  0.20865988     0.13800
H3516       H  0.85689280  0.81102304  0.20879576     0.13800
N3517       N  0.50828038  0.96319401  0.35761760    -0.35600
N3518       N  0.95511525  0.00773204  0.36181487    -0.56200
N3519       N  0.50515218  0.55909196  0.37327224    -0.35600
N3520       N  0.55811941  0.01235966  0.36940929    -0.56200
C3521       C  0.98145429  0.94316412  0.34860503     0.28000
C3522       C  0.53481790  0.94488713  0.35599082     0.28000
C3523       C  0.98246532  0.57620762  0.36372234     0.28000
C3524       C  0.53063360  0.57944397  0.36977526     0.28000
C3525       C  0.93725796  0.98247747  0.35099158     0.36600
C3526       C  0.94214074  0.53138861  0.35593103     0.36600
C3527       C  0.57739850  0.98735305  0.36215403     0.36600
C3528       C  0.57602536  0.53961764  0.37051907     0.36600
C3529       C  0.99171615  0.91171201  0.34593173    -0.20900
C3530       C  0.52595563  0.91312596  0.34966497    -0.20900
C3531       C  0.99074422  0.60841295  0.36070172    -0.20900
C3532       C  0.51951946  0.61028755  0.36384750    -0.20900
C3533       C  0.90564623  0.99137673  0.34601093    -0.22000
C3534       C  0.91208067  0.52071974  0.34502777    -0.22000
C3535       C  0.60903527  0.99774614  0.36008912    -0.22000
C3536       C  0.60790179  0.53239747  0.36400154    -0.22000
C3537       C  0.95023054  0.95315395  0.34058755    -0.17300
C3538       C  0.56625962  0.95690676  0.35134409    -0.17300
C3539       C  0.56277247  0.57015787  0.36354583    -0.17300
C3540       C  0.95310031  0.56317779  0.35164193    -0.17300
H3541       H  0.97722577  0.89069275  0.33979039     0.15600
H3542       H  0.54183515  0.89315799  0.34493121     0.15600
H3543       H  0.97511558  0.62785210  0.35336063     0.15600
H3544       H  0.53384441  0.63155455  0.35869175     0.15600
H3545       H  0.88594027  0.97659709  0.33681391     0.13900
H3546       H  0.89172960  0.53521510  0.33781732     0.13900
H3547       H  0.62973172  0.98363311  0.35347974     0.13900
H3548       H  0.62728820  0.54926654  0.35900835     0.13900
H3549       H  0.50823392  0.98801731  0.35653641     0.27100
H3550       H  0.50620649  0.53447869  0.37666633     0.27100
O3551       O  0.75052504  0.94017900  0.16079153    -0.74300
O3552       O  0.74871424  0.90682969  0.20452527    -0.53200
C3553       C  0.74910621  0.91193264  0.17401822     0.79400
O3554       O  0.84623427  0.55160152  0.24306764    -0.58900
O3555       O  0.80592754  0.58869200  0.24284946    -0.51900
C3556       C  0.83569235  0.58062276  0.24066424     0.71400
O3557       O  0.84275915  0.94166167  0.24513016    -0.73500
O3558       O  0.79884150  0.90813773  0.24664651    -0.54000
C3559       C  0.82941412  0.91335281  0.24414148     0.77400
O3560       O  0.74563184  0.55235732  0.15598206    -0.58600
O3561       O  0.74904096  0.58906519  0.19732676    -0.51700
C3562       C  0.74530960  0.58152491  0.16720878     0.74000
Zr3563     Zr  0.74992018  0.49787469  0.18032152     2.54700
O3564       O  0.79060956  0.49792910  0.13848498    -0.79200
O3565       O  0.70663065  0.49462486  0.14004897    -0.92600
Zr3566     Zr  0.82072598  0.49794267  0.24771208     2.64700
O3567       O  0.85608084  0.49317865  0.20124182    -0.97600
O3568       O  0.86564063  0.50125122  0.28559156    -0.79600
O3569       O  0.78515136  0.96672296  0.21445563    -0.83000
O3570       O  0.78684705  0.52863620  0.21281519    -2.17700
O3571       O  0.66328790  0.56070426  0.25123477    -0.66400
O3572       O  0.70752670  0.59365679  0.24924686    -0.50900
C3573       C  0.67683620  0.58902737  0.25006773     0.72400
O3574       O  0.74931941  0.94700214  0.34314249    -0.59300
O3575       O  0.74813275  0.91110977  0.30121773    -0.51200
C3576       C  0.74701233  0.91792714  0.33153091     0.74200
O3577       O  0.75138069  0.55741952  0.33949725    -0.70700
O3578       O  0.75360319  0.59258049  0.29713986    -0.49300
C3579       C  0.75060487  0.58601757  0.32736254     0.75600
O3580       O  0.65869147  0.94933727  0.24497843    -0.66000
O3581       O  0.69888107  0.91208661  0.24560855    -0.53200
C3582       C  0.66906341  0.92013781  0.24270198     0.74000
Zr3583     Zr  0.68434835  0.00339606  0.25027621     2.77500
O3584       O  0.64622924  0.00361815  0.29464367    -0.96700
O3585       O  0.64187328  0.00608903  0.20930261    -0.77600
Zr3586     Zr  0.75599829  0.00170792  0.31811798     2.70100
O3587       O  0.72280089  0.00480188  0.36628652    -0.78800
O3588       O  0.80470013  0.00146436  0.35128457    -0.97900
Zr3589     Zr  0.75034922  0.94038373  0.25127946     2.21500
Zr3590     Zr  0.75495582  0.56044229  0.24814072     2.11100
O3591       O  0.71999236  0.53261857  0.28417721    -2.46600
O3592       O  0.71768676  0.97210678  0.28579707    -0.78600
O3593       O  0.71806167  0.53117930  0.21445938    -0.70800
O3594       O  0.78843219  0.96903708  0.28414785    -2.31800
O3595       O  0.71639486  0.97052951  0.21599797    -2.28000
O3596       O  0.78957271  0.53078467  0.28317159    -0.72600
H3597       H  0.79959142  0.54209206  0.19873777     0.79400
H3598       H  0.80117441  0.95439151  0.29698935     0.80500
H3599       H  0.70755986  0.54735148  0.29705953     0.82700
H3600       H  0.70270663  0.95668249  0.20282662     0.80400
H3601       H  0.88725803  0.99400461  0.26811758     0.43400
H3602       H  0.80431398  0.47722896  0.35875757     0.42400
H3603       H  0.70090790  0.00953465  0.35788172     0.42000
H3604       H  0.63892894  0.52543982  0.29809278     0.40000
H3605       H  0.65417559  0.49948148  0.18769407     0.43100
H3606       H  0.72347129  0.99557807  0.11650728     0.37900
H3607       H  0.79211272  0.97908798  0.12825026     0.44000
H3608       H  0.84714748  0.47462457  0.18881208     0.40400
H3609       H  0.62739579  0.99110856  0.28636544     0.45300
H3610       H  0.71788435  0.49425403  0.11902889     0.44100
H3611       H  0.85118333  0.51210179  0.18760455     0.44200
H3612       H  0.82161846  0.01085781  0.33735759     0.44600
C3613       C  0.89136010  0.89258077  0.30361779    -0.11300
C3614       C  0.89820266  0.89571471  0.27055510     0.05700
C3615       C  0.92196650  0.91797012  0.26073173    -0.06600
C3616       C  0.93855607  0.93649850  0.28397586    -0.07300
C3617       C  0.93183053  0.93313340  0.31693836    -0.01900
C3618       C  0.90835416  0.91095752  0.32687093     0.04900
N3619       N  0.90042889  0.90865477  0.36030440     0.67400
H3620       H  0.87276734  0.87585221  0.31113021     0.16300
H3621       H  0.95681014  0.95362422  0.27630818     0.16100
N3622       N  0.92956893  0.92211612  0.22737465     0.75200
O3623       O  0.87360413  0.91926582  0.36913606    -0.38300
O3624       O  0.92262224  0.90549595  0.38119141    -0.38200
O3625       O  0.91782065  0.94573843  0.21238659    -0.38900
O3626       O  0.95475465  0.90928987  0.21665001    -0.39000
C3627       C  0.57236854  0.57418762  0.30506489    -0.11300
C3628       C  0.57847918  0.58704347  0.33611004     0.05700
C3629       C  0.60067581  0.61270715  0.33988099    -0.06600
C3630       C  0.61643827  0.62473290  0.31258138    -0.07300
C3631       C  0.61033545  0.61155619  0.28164365    -0.01900
C3632       C  0.58792508  0.58631977  0.27790597     0.04900
N3633       N  0.58092987  0.57257186  0.24683610     0.67400
H3634       H  0.55595045  0.55388341  0.30214064     0.16300
H3635       H  0.63360119  0.64445347  0.31537496     0.16100
N3636       N  0.60795637  0.62631105  0.37098526     0.75200
O3637       O  0.59252387  0.54548062  0.23979861    -0.38300
O3638       O  0.55694815  0.58260770  0.23092522    -0.38200
O3639       O  0.63257598  0.61677696  0.38623334    -0.38900
O3640       O  0.59578641  0.65301063  0.37859113    -0.39000
C3641       C  0.91043183  0.59825813  0.32865732    -0.11300
C3642       C  0.93795426  0.57981089  0.32392534     0.05700
C3643       C  0.94797371  0.57245734  0.29208816    -0.06600
C3644       C  0.93050105  0.58389751  0.26564761    -0.07300
C3645       C  0.90290958  0.60201687  0.27047862    -0.01900
C3646       C  0.89282606  0.60916398  0.30196888     0.04900
N3647       N  0.86570528  0.62906041  0.30691732     0.67400
H3648       H  0.90223472  0.60339350  0.35296647     0.16300
H3649       H  0.93838158  0.57870095  0.24124585     0.16100
N3650       N  0.97544797  0.55285699  0.28627996     0.75200
O3651       O  0.83872525  0.61651934  0.31346242    -0.38300
O3652       O  0.87006858  0.65897724  0.31016192    -0.38200
O3653       O  0.97125952  0.52357607  0.27879310    -0.38900
O3654       O  0.00193637  0.56638983  0.27977502    -0.39000
C3655       C  0.61851396  0.90057892  0.30278774    -0.11300
C3656       C  0.60366052  0.90326092  0.27229701     0.05700
C3657       C  0.57952787  0.92621868  0.26731008    -0.06600
C3658       C  0.56970092  0.94523598  0.29317496    -0.07300
C3659       C  0.58325690  0.94134574  0.32422161    -0.01900
C3660       C  0.60838458  0.91939230  0.32883160     0.04900
N3661       N  0.62256625  0.91474695  0.35998645     0.67400
H3662       H  0.63794241  0.88363584  0.30623405     0.16300
H3663       H  0.55035469  0.96225316  0.28941125     0.16100
N3664       N  0.56492319  0.93061822  0.23617852     0.75200
O3665       O  0.60793274  0.89742094  0.38012185    -0.38300
O3666       O  0.65199742  0.92152698  0.36462577    -0.38200
O3667       O  0.53706347  0.91911556  0.23087452    -0.38900
O3668       O  0.57536074  0.95280794  0.21819176    -0.39000
C3669       C  0.76573221  0.92135901  0.42211170    -0.11300
C3670       C  0.77527691  0.89741099  0.40070750     0.05700
C3671       C  0.80740915  0.88693985  0.40108074    -0.06600
C3672       C  0.83013891  0.90196985  0.42127840    -0.07300
C3673       C  0.82104432  0.92703745  0.44160412    -0.01900
C3674       C  0.78801175  0.93550630  0.44371869     0.04900
N3675       N  0.77637903  0.95623811  0.46896246     0.67400
H3676       H  0.74044165  0.92749423  0.42313245     0.16300
H3677       H  0.85496051  0.89406142  0.42122215     0.16100
N3678       N  0.81698341  0.86021993  0.38192046     0.75200
O3679       O  0.74918069  0.96937273  0.46606765    -0.38300
O3680       O  0.78949203  0.95571585  0.49659922    -0.38200
O3681       O  0.82817674  0.86515511  0.35408500    -0.38900
O3682       O  0.82186410  0.83360836  0.39566593    -0.39000
C3683       C  0.77517730  0.57801413  0.40636498    -0.11300
C3684       C  0.78077345  0.60827866  0.39332713     0.05700
C3685       C  0.81104581  0.62315629  0.39773579    -0.06600
C3686       C  0.83610206  0.60678699  0.41290880    -0.07300
C3687       C  0.83027915  0.57696966  0.42707193    -0.01900
C3688       C  0.79929347  0.56250003  0.42368001     0.04900
N3689       N  0.79096454  0.53315857  0.43937242     0.67400
H3690       H  0.75146661  0.56694455  0.40410692     0.16300
H3691       H  0.85966508  0.61818508  0.41520623     0.16100
N3692       N  0.81639535  0.65552165  0.38866896     0.75200
O3693       O  0.77430527  0.53500765  0.46462390    -0.38300
O3694       O  0.78910345  0.50774867  0.42253522    -0.38200
O3695       O  0.81633408  0.67664309  0.41071144    -0.38900
O3696       O  0.83251169  0.66059332  0.36358037    -0.39000
C3697       C  0.83542906  0.60809371  0.09166716    -0.11300
C3698       C  0.83234174  0.57937650  0.07445268     0.05700
C3699       C  0.80175543  0.56414377  0.07145956    -0.06600
C3700       C  0.77517622  0.57722956  0.08675910    -0.07300
C3701       C  0.77814967  0.60629622  0.10336679    -0.01900
C3702       C  0.80832572  0.62221343  0.10505611     0.04900
N3703       N  0.81147726  0.65391817  0.11766408     0.67400
H3704       H  0.85867752  0.62018066  0.09360459     0.16300
H3705       H  0.75185771  0.56530563  0.08478433     0.16100
N3706       N  0.79699428  0.53603613  0.05200712     0.75200
O3707       O  0.82610487  0.65799217  0.14422968    -0.38300
O3708       O  0.81133838  0.67667318  0.09766042    -0.38200
O3709       O  0.79301774  0.50934566  0.06586136    -0.38900
O3710       O  0.78612869  0.53943739  0.02364847    -0.39000
C3711       C  0.81200028  0.89987617  0.12850970    -0.11300
C3712       C  0.78291959  0.89680307  0.11059426     0.05700
C3713       C  0.77823783  0.91605376  0.08336660    -0.06600
C3714       C  0.80349380  0.93529045  0.07252967    -0.07300
C3715       C  0.83361758  0.93640487  0.08848331    -0.01900
C3716       C  0.83735121  0.92020563  0.11827003     0.04900
N3717       N  0.86635596  0.92321333  0.13781721     0.67400
H3718       H  0.81477434  0.88619595  0.15062015     0.16300
H3719       H  0.79990060  0.94911338  0.05084040     0.16100
N3720       N  0.74772689  0.91733807  0.06712519     0.75200
O3721       O  0.86593884  0.91566725  0.16739667    -0.38300
O3722       O  0.89298818  0.93096928  0.12534626    -0.38200
O3723       O  0.72800338  0.93869007  0.07548710    -0.38900
O3724       O  0.74480039  0.90473809  0.03938373    -0.39000
C3725       C  0.90909650  0.82793625  0.40172776    -0.11300
C3726       C  0.92540629  0.82193594  0.43090703     0.05700
C3727       C  0.92674251  0.78993467  0.44272352    -0.06600
C3728       C  0.91269019  0.76487568  0.42487492    -0.07300
C3729       C  0.89732185  0.77107528  0.39557002    -0.01900
C3730       C  0.89549965  0.80270519  0.38366726     0.04900
N3731       N  0.88085194  0.80918136  0.35279827     0.67400
H3732       H  0.90708792  0.85206091  0.39282053     0.16300
H3733       H  0.91313772  0.74050545  0.43416656     0.16100
N3734       N  0.94056429  0.78251958  0.47360354     0.75200
O3735       O  0.89841698  0.81756178  0.32948863    -0.38300
O3736       O  0.85185962  0.80122383  0.34722709    -0.38200
O3737       O  0.92192696  0.78013833  0.49737132    -0.38900
O3738       O  0.96672717  0.76743177  0.47466749    -0.39000
C3739       C  0.57674257  0.77038199  0.40898270    -0.11300
C3740       C  0.60615796  0.77728912  0.39470697     0.05700
C3741       C  0.61967643  0.80841972  0.39802408    -0.06600
C3742       C  0.60383080  0.83200557  0.41561551    -0.07300
C3743       C  0.57429747  0.82540005  0.42985339    -0.01900
C3744       C  0.56070082  0.79405483  0.42645646     0.04900
N3745       N  0.53108251  0.78533758  0.44126785     0.67400
H3746       H  0.56640386  0.74636527  0.40683049     0.16300
H3747       H  0.61508295  0.85538965  0.41885201     0.16100
N3748       N  0.64993897  0.81645802  0.38438952     0.75200
O3749       O  0.53236918  0.76876260  0.46672804    -0.38300
O3750       O  0.50613203  0.78333026  0.42359878    -0.38200
O3751       O  0.65040639  0.82916678  0.35668873    -0.38900
O3752       O  0.67342412  0.82109023  0.40355443    -0.39000
C3753       C  0.93667399  0.79052229  0.06858587    -0.11300
C3754       C  0.93171817  0.82152591  0.08141545     0.05700
C3755       C  0.91088855  0.82519417  0.10754415    -0.06600
C3756       C  0.89407132  0.79876990  0.11928894    -0.07300
C3757       C  0.89794568  0.76825523  0.10570160    -0.01900
C3758       C  0.92008475  0.76375989  0.08071726     0.04900
N3759       N  0.92597114  0.73253431  0.06756783     0.67400
H3760       H  0.95287916  0.78737893  0.04850088     0.16300
H3761       H  0.87697894  0.80211638  0.13868473     0.16100
N3762       N  0.90227676  0.85602864  0.11888411     0.75200
O3763       O  0.95077547  0.71759910  0.07667935    -0.38300
O3764       O  0.91195816  0.72411929  0.04155129    -0.38200
O3765       O  0.91231455  0.86517622  0.14644630    -0.38900
O3766       O  0.87634130  0.86709977  0.10777004    -0.39000
C3767       C  0.60662052  0.83868724  0.09431535    -0.11300
C3768       C  0.57660113  0.83332254  0.07934202     0.05700
C3769       C  0.56378540  0.80173834  0.07754954    -0.06600
C3770       C  0.58001516  0.77656270  0.09201505    -0.07300
C3771       C  0.60967815  0.78171977  0.10730021    -0.01900
C3772       C  0.62373067  0.81279473  0.10747435     0.04900
N3773       N  0.65595341  0.81809623  0.11856846     0.67400
H3774       H  0.61721328  0.86266735  0.09472385     0.16300
H3775       H  0.56979626  0.75243406  0.09069003     0.16100
N3776       N  0.53472695  0.79456833  0.06009741     0.75200
O3777       O  0.66058919  0.83065469  0.14607446    -0.38300
O3778       O  0.67782741  0.82047742  0.09773456    -0.38200
O3779       O  0.53649280  0.78669229  0.03066264    -0.38900
O3780       O  0.51008810  0.78639676  0.07572767    -0.39000
O3781       O  0.84204902  0.74609184  0.55583329    -0.74300
O3782       O  0.79883581  0.74655630  0.58947904    -0.53200
C3783       C  0.82929363  0.74530330  0.58428240     0.79400
O3784       O  0.74846739  0.84098557  0.94519191    -0.58900
O3785       O  0.74945720  0.79942480  0.90886295    -0.51900
C3786       C  0.74729598  0.82945231  0.91595542     0.71400
O3787       O  0.75211951  0.83980526  0.55794176    -0.73500
O3788       O  0.75108890  0.79625973  0.59111383    -0.54000
C3789       C  0.75170893  0.82675613  0.58640573     0.77400
O3790       O  0.84150919  0.74408258  0.94320981    -0.58600
O3791       O  0.79939923  0.74730346  0.90758640    -0.51700
C3792       C  0.82949697  0.74414525  0.91395595     0.74000
Zr3793     Zr  0.81861030  0.74634751  0.99957313     2.54700
O3794       O  0.86438459  0.78283197  0.00304643    -0.79200
O3795       O  0.85315065  0.69918171  0.99975311    -0.92600
Zr3796     Zr  0.75292392  0.81771013  0.00064737     2.64700
O3797       O  0.79584496  0.85768832  0.00000932    -0.97600
O3798       O  0.71039044  0.85759822  0.00327753    -0.79600
O3799       O  0.78482687  0.78261474  0.53129275    -0.83000
O3800       O  0.78748891  0.78399844  0.96934992    -2.17700
O3801       O  0.74475277  0.65883961  0.94214853    -0.66400
O3802       O  0.74518275  0.70136491  0.90724618    -0.50900
C3803       C  0.74327499  0.67111224  0.91348631     0.72400
O3804       O  0.65728740  0.74366603  0.55157896    -0.59300
O3805       O  0.69842080  0.74300492  0.58878213    -0.51200
C3806       C  0.66829879  0.74153088  0.58083261     0.74200
O3807       O  0.66105696  0.75084021  0.93943583    -0.70700
O3808       O  0.70429885  0.75147474  0.90584004    -0.49300
C3809       C  0.67399776  0.75050580  0.91101971     0.75600
O3810       O  0.74540829  0.65754600  0.55473958    -0.66000
O3811       O  0.74390397  0.69947118  0.59058784    -0.53200
C3812       C  0.74317787  0.66929126  0.58372905     0.74000
Zr3813     Zr  0.74869961  0.68012383  0.49911888     2.77500
O3814       O  0.70547038  0.63993322  0.50030405    -0.96700
O3815       O  0.79146379  0.64044472  0.49933486    -0.77600
Zr3816     Zr  0.68138778  0.74885791  0.49747907     2.70100
O3817       O  0.64084181  0.70598982  0.49652841    -0.78800
O3818       O  0.64160792  0.79137790  0.49680612    -0.97900
Zr3819     Zr  0.74887099  0.74796058  0.55924420     2.21500
Zr3820     Zr  0.75135641  0.75010949  0.93908526     2.11100
O3821       O  0.71426031  0.71592210  0.96666194    -2.46600
O3822       O  0.71896035  0.71864616  0.52381539    -0.78600
O3823       O  0.78403400  0.71274066  0.96759218    -0.70800
O3824       O  0.71449895  0.78364126  0.53040061    -2.31800
O3825       O  0.78410159  0.71336486  0.53039979    -2.28000
O3826       O  0.71731161  0.78605683  0.96746450    -0.72600
H3827       H  0.80103427  0.79677145  0.95535712     0.79400
H3828       H  0.70138045  0.79615422  0.54484683     0.80500
H3829       H  0.70074464  0.70350961  0.95193201     0.82700
H3830       H  0.79669236  0.69993093  0.54467167     0.80400
H3831       H  0.68833156  0.84559383  0.50674914     0.43400
H3832       H  0.62931073  0.79388113  0.98318207     0.42400
H3833       H  0.65006731  0.68885987  0.51029709     0.42000
H3834       H  0.68939086  0.64811284  0.01687692     0.40000
H3835       H  0.77978899  0.62175890  0.98555613     0.43100
H3836       H  0.88021674  0.71915729  0.49193308     0.37900
H3837       H  0.84246054  0.81126968  0.50951882     0.44000
H3838       H  0.78527125  0.87754262  0.99225106     0.40400
H3839       H  0.69184766  0.64471345  0.48110768     0.45300
H3840       H  0.84345441  0.68433666  0.01569991     0.44100
H3841       H  0.80116333  0.86215187  0.02303651     0.44200
H3842       H  0.64069023  0.79881995  0.51959328     0.44600
N3843       N  0.62397838  0.75351001  0.62158251    -0.02500
C3844       C  0.60977600  0.73594623  0.64539002     0.00100
C3845       C  0.62248991  0.70537449  0.64625209    -0.22800
C3846       C  0.64457208  0.70379129  0.62169628    -0.23000
C3847       C  0.64554926  0.73366799  0.60725021     0.00000
H3848       H  0.61524371  0.68582007  0.66192535     0.13800
H3849       H  0.65691566  0.68248690  0.61371331     0.13800
N3850       N  0.88135482  0.74333625  0.61918722    -0.02500
C3851       C  0.88654516  0.73462740  0.65056852     0.00100
C3852       C  0.85792350  0.72548511  0.66484071    -0.22800
C3853       C  0.83437971  0.72854066  0.64201986    -0.23000
C3854       C  0.84899915  0.73911186  0.61403001     0.00000
H3855       H  0.85404633  0.71955298  0.69001397     0.13800
H3856       H  0.80890298  0.72424922  0.64581588     0.13800
N3857       N  0.62308548  0.75379312  0.87602797    -0.02500
C3858       C  0.65423427  0.74562025  0.88134802     0.00100
C3859       C  0.66658067  0.73115245  0.85403644    -0.22800
C3860       C  0.64196370  0.72867514  0.83194380    -0.23000
C3861       C  0.61543572  0.74295433  0.84579579     0.00000
H3862       H  0.69129900  0.72434241  0.85004495     0.13800
H3863       H  0.64373685  0.71903690  0.80760329     0.13800
N3864       N  0.88106912  0.74426023  0.87899703    -0.02500
C3865       C  0.84947541  0.73698599  0.88455806     0.00100
C3866       C  0.83543150  0.72535695  0.85627857    -0.22800
C3867       C  0.85905222  0.72415794  0.83344049    -0.23000
C3868       C  0.88728365  0.73559163  0.84774857     0.00000
H3869       H  0.81027435  0.71911555  0.85231281     0.13800
H3870       H  0.85537671  0.71750024  0.80828047     0.13800
N3871       N  0.94897122  0.86303782  0.00577351    -0.35600
N3872       N  0.50414876  0.86928645  0.55622772    -0.56200
N3873       N  0.54778006  0.86201716  0.00513227    -0.35600
N3874       N  0.49769680  0.86234212  0.95566530    -0.56200
C3875       C  0.93478231  0.85614148  0.53226502     0.28000
C3876       C  0.92999646  0.85433593  0.98015216     0.28000
C3877       C  0.57258705  0.86681403  0.53101024     0.28000
C3878       C  0.56585962  0.85741777  0.97863831     0.28000
C3879       C  0.97814698  0.86090671  0.57449003     0.36600
C3880       C  0.53100722  0.86850501  0.57488413     0.36600
C3881       C  0.97080466  0.85629677  0.93604607     0.36600
C3882       C  0.52287353  0.85532513  0.93671578     0.36600
C3883       C  0.90332624  0.84863556  0.52345854    -0.20900
C3884       C  0.90003843  0.84463480  0.99092273    -0.20900
C3885       C  0.60357006  0.85974478  0.52112899    -0.20900
C3886       C  0.59825016  0.85875262  0.98712456    -0.20900
C3887       C  0.98876467  0.85809585  0.60621664    -0.22000
C3888       C  0.52260866  0.86354611  0.60695833    -0.22000
C3889       C  0.97945676  0.84981778  0.90441446    -0.22000
C3890       C  0.51276908  0.85029531  0.90515696    -0.22000
C3891       C  0.94777997  0.84988821  0.56327523    -0.17300
C3892       C  0.94023610  0.84823281  0.94819577    -0.17300
C3893       C  0.55353732  0.84714162  0.94841472    -0.17300
C3894       C  0.56178412  0.86090496  0.56288236    -0.17300
H3895       H  0.88412709  0.84111427  0.53933191     0.15600
H3896       H  0.87987525  0.83607483  0.97628400     0.15600
H3897       H  0.62443960  0.85491631  0.53618275     0.15600
H3898       H  0.61880189  0.85500784  0.97175228     0.15600
H3899       H  0.97460540  0.85149632  0.62703848     0.13900
H3900       H  0.53884838  0.85968097  0.62726049     0.13900
H3901       H  0.96351031  0.84466675  0.88412402     0.13900
H3902       H  0.52753838  0.84357450  0.88484237     0.13900
H3903       H  0.97262979  0.87114756  0.00498866     0.27100
H3904       H  0.52361069  0.85593394  0.00656662     0.27100
O3905       O  0.55415033  0.74610572  0.65638033    -0.74300
O3906       O  0.59143924  0.74992755  0.69734544    -0.53200
C3907       C  0.58348552  0.74597640  0.66736803     0.79400
O3908       O  0.94290953  0.83782931  0.74932425    -0.58900
O3909       O  0.90933973  0.79399303  0.74817570    -0.51900
C3910       C  0.91452135  0.82468794  0.74776289     0.71400
O3911       O  0.55182625  0.84438955  0.74511003    -0.73500
O3912       O  0.58900388  0.80440183  0.74324043    -0.54000
C3913       C  0.58107111  0.83429807  0.74266019     0.77400
O3914       O  0.94435616  0.74171405  0.65800929    -0.58600
O3915       O  0.91040628  0.74298260  0.70092891    -0.51700
C3916       C  0.91594853  0.74051399  0.67063704     0.74000
Zr3917     Zr  0.00022082  0.74864485  0.67971459     2.54700
O3918       O  0.99997331  0.79303833  0.64177458    -0.79200
O3919       O  0.00009105  0.70755421  0.63741701    -0.92600
Zr3920     Zr  0.99871741  0.81663970  0.74881963     2.64700
O3921       O  0.49554884  0.85432479  0.70279934    -0.97600
O3922       O  0.99725439  0.85658846  0.79210072    -0.79600
O3923       O  0.52532884  0.78162759  0.71706395    -0.83000
O3924       O  0.96819247  0.78221771  0.71326786    -2.17700
O3925       O  0.95208737  0.65422023  0.74107677    -0.66400
O3926       O  0.91476579  0.69428057  0.74141347    -0.50900
C3927       C  0.92292892  0.66460532  0.73851269     0.72400
O3928       O  0.55759823  0.74785090  0.83906766    -0.59300
O3929       O  0.59156556  0.75252799  0.79617720    -0.51200
C3930       C  0.58599302  0.74896366  0.82636737     0.74200
O3931       O  0.94588296  0.74371085  0.84024044    -0.70700
O3932       O  0.91096855  0.74269383  0.79730531    -0.49300
C3933       C  0.91694003  0.74168498  0.82779381     0.75600
O3934       O  0.56160522  0.66093639  0.74876413    -0.66000
O3935       O  0.59408192  0.70544582  0.74642783    -0.53200
C3936       C  0.58967390  0.67470420  0.74693114     0.74000
Zr3937     Zr  0.50506393  0.68077269  0.74902554     2.77500
O3938       O  0.50494410  0.64196534  0.79299879    -0.96700
O3939       O  0.50996122  0.63914212  0.70765275    -0.77600
Zr3940     Zr  0.50150419  0.75004003  0.81741637     2.70100
O3941       O  0.50260685  0.70888255  0.85921645    -0.78800
O3942       O  0.50104319  0.79462807  0.85548551    -0.97900
Zr3943     Zr  0.56084345  0.75316185  0.74714655     2.21500
Zr3944     Zr  0.94223170  0.74568692  0.74904523     2.11100
O3945       O  0.97276151  0.71131317  0.78354424    -2.46600
O3946       O  0.53420489  0.71731128  0.78328889    -0.78600
O3947       O  0.97259799  0.71224369  0.71412998    -0.70800
O3948       O  0.53143422  0.78643028  0.78373486    -2.31800
O3949       O  0.53245446  0.71597366  0.71318201    -2.28000
O3950       O  0.97441246  0.77808688  0.77984069    -0.72600
H3951       H  0.95301352  0.79424220  0.70030856     0.79400
H3952       H  0.54558004  0.80019665  0.79656299     0.80500
H3953       H  0.95902878  0.69738450  0.79618826     0.82700
H3954       H  0.54674216  0.70327004  0.70008795     0.80400
H3955       H  0.49038218  0.87834368  0.77971328     0.43400
H3956       H  0.97747030  0.79976213  0.85378438     0.42400
H3957       H  0.51252509  0.69002284  0.84860653     0.42000
H3958       H  0.99631873  0.62248791  0.78443545     0.40000
H3959       H  0.99883548  0.64524906  0.68905256     0.43100
H3960       H  0.50987794  0.68996430  0.64653348     0.37900
H3961       H  0.47966773  0.79075675  0.62951611     0.44000
H3962       H  0.01608580  0.84782826  0.68989708     0.40400
H3963       H  0.52128523  0.62585538  0.78695432     0.45300
H3964       H  0.01185637  0.71747399  0.61918881     0.44100
H3965       H  0.97841234  0.84855067  0.69105411     0.44200
H3966       H  0.47985663  0.79288739  0.86615555     0.44600
N3967       N  0.75502290  0.87733132  0.62426798    -0.02500
C3968       C  0.74440085  0.88211929  0.65494321     0.00100
C3969       C  0.73228433  0.85386894  0.66759044    -0.22800
C3970       C  0.73423706  0.83118723  0.64381014    -0.23000
C3971       C  0.74779828  0.84583956  0.61701896     0.00000
H3972       H  0.72407262  0.84971259  0.69199942     0.13800
H3973       H  0.72657694  0.80627435  0.64602216     0.13800
N3974       N  0.75092151  0.61899360  0.61861530    -0.02500
C3975       C  0.73693278  0.64765078  0.61159815     0.00100
C3976       C  0.71541638  0.65540956  0.63550626    -0.22800
C3977       C  0.71443973  0.62991086  0.65638135    -0.23000
C3978       C  0.73679591  0.60795775  0.64609796     0.00000
H3979       H  0.70293871  0.67783775  0.63839133     0.13800
H3980       H  0.69975761  0.62784487  0.67752518     0.13800
N3981       N  0.75403633  0.62392775  0.87576323    -0.03700
C3982       C  0.73699231  0.64996955  0.88519403     0.00100
C3983       C  0.71282647  0.65595444  0.86288321    -0.22800
C3984       C  0.71532015  0.63335026  0.83869777    -0.23000
C3985       C  0.74057475  0.61367112  0.84731749     0.00000
H3986       H  0.69443855  0.67387239  0.86476496     0.13800
H3987       H  0.69976247  0.63090069  0.81757287     0.13800
N3988       N  0.74996034  0.88156603  0.88253174    -0.02500
C3989       C  0.73727940  0.89039588  0.85327467     0.00100
C3990       C  0.71978528  0.86472015  0.84027272    -0.22800
C3991       C  0.72252371  0.83956431  0.86133592    -0.23000
C3992       C  0.74022047  0.85060946  0.88770369     0.00000
H3993       H  0.70781317  0.86371260  0.81683654     0.13800
H3994       H  0.71264515  0.81555062  0.85767586     0.13800
N3995       N  0.87680383  0.00753107  0.56092482    -0.35600
N3996       N  0.86688423  0.95664629  0.01245671    -0.56200
N3997       N  0.85827620  0.00413829  0.96274667    -0.35600
N3998       N  0.87167731  0.55598837  0.00291761    -0.56200
C3999       C  0.86789290  0.98346815  0.58116610     0.28000
C4000       C  0.87243963  0.53700376  0.57343676     0.28000
C4001       C  0.85410501  0.97710862  0.94506556     0.28000
C4002       C  0.86063883  0.52816094  0.93791483     0.28000
C4003       C  0.86411600  0.93813796  0.54117384     0.36600
C4004       C  0.85713361  0.93673879  0.98832775     0.36600
C4005       C  0.87025555  0.57783941  0.52885746     0.36600
C4006       C  0.86254438  0.57341187  0.97690668     0.36600
C4007       C  0.86305770  0.99592936  0.61184454    -0.20900
C4008       C  0.86705698  0.52992381  0.60572396    -0.20900
C4009       C  0.85265676  0.98445049  0.91240552    -0.20900
C4010       C  0.85893203  0.51714234  0.90630878    -0.20900
C4011       C  0.85601261  0.90644189  0.53367136    -0.22000
C4012       C  0.85353346  0.90581557  0.99954338    -0.22000
C4013       C  0.86262628  0.60863400  0.51859449    -0.22000
C4014       C  0.85781459  0.60521256  0.98586680    -0.22000
C4015       C  0.85825384  0.95195831  0.57181537    -0.17300
C4016       C  0.86284482  0.56659906  0.56004324    -0.17300
C4017       C  0.85297276  0.55963378  0.94696175    -0.17300
C4018       C  0.84582971  0.94718897  0.95809589    -0.17300
H4019       H  0.85455527  0.98334874  0.63286400     0.15600
H4020       H  0.86193878  0.54686904  0.62499326     0.15600
H4021       H  0.84694675  0.96833632  0.89248924     0.15600
H4022       H  0.85560125  0.53158304  0.88483394     0.15600
H4023       H  0.85010044  0.88739000  0.55040909     0.13900
H4024       H  0.84575507  0.88497679  0.98575609     0.13900
H4025       H  0.85682041  0.62931065  0.53338107     0.13900
H4026       H  0.84933243  0.62499536  0.97135482     0.13900
H4027       H  0.88067877  0.00579043  0.53624845     0.27100
H4028       H  0.85328991  0.00607067  0.98725735     0.27100
N4029       N  0.61814409  0.88472591  0.74927384    -0.02500
C4030       C  0.60785570  0.85695923  0.73430750     0.00100
C4031       C  0.62980669  0.84843438  0.71101218    -0.22800
C4032       C  0.65401122  0.87124995  0.71160484    -0.23000
C4033       C  0.64668373  0.89301466  0.73561249     0.00000
H4034       H  0.62865370  0.82700336  0.69603284     0.13800
H4035       H  0.67493673  0.87184528  0.69641978     0.13800
N4036       N  0.88655528  0.61544171  0.74553817    -0.02500
C4037       C  0.89646467  0.64196684  0.72919165     0.00100
C4038       C  0.87448380  0.64877415  0.70494117    -0.22800
C4039       C  0.85009799  0.62621124  0.70700514    -0.23000
C4040       C  0.85796152  0.60598901  0.73208854     0.00000
H4041       H  0.87590444  0.66829996  0.68793183     0.13800
H4042       H  0.82843997  0.62458213  0.69234825     0.13800
N4043       N  0.62558278  0.62419329  0.75190986    -0.02500
C4044       C  0.61963601  0.65521811  0.74259120     0.00100
C4045       C  0.64721503  0.66891336  0.72992899    -0.22800
C4046       C  0.67073231  0.64618077  0.73158092    -0.23000
C4047       C  0.65700112  0.61842956  0.74404140     0.00000
H4048       H  0.65037067  0.69343850  0.72162674     0.13800
H4049       H  0.69576426  0.65012779  0.72558948     0.13800
N4050       N  0.87919805  0.87566232  0.75236406    -0.02500
C4051       C  0.84859087  0.88266631  0.74218002     0.00100
C4052       C  0.83587737  0.85671588  0.72495768    -0.22800
C4053       C  0.85883728  0.83312348  0.72486650    -0.23000
C4054       C  0.88525683  0.84494707  0.74208480     0.00000
H4055       H  0.81218502  0.85500220  0.71374950     0.13800
H4056       H  0.85637536  0.80960840  0.71356153     0.13800
N4057       N  0.50943196  0.96313132  0.85883643    -0.35600
N4058       N  0.95703408  0.00588605  0.86224417    -0.56200
N4059       N  0.50886723  0.55721211  0.87214757    -0.35600
N4060       N  0.55826001  0.01242970  0.87121248    -0.56200
C4061       C  0.98413897  0.94060639  0.85330782     0.28000
C4062       C  0.53611569  0.94484650  0.86024949     0.28000
C4063       C  0.98355433  0.57526812  0.86416447     0.28000
C4064       C  0.53473994  0.57709796  0.86895180     0.28000
C4065       C  0.93975416  0.98009204  0.85181324     0.36600
C4066       C  0.94228368  0.53103348  0.85827144     0.36600
C4067       C  0.57814931  0.98783667  0.86400556     0.36600
C4068       C  0.57955861  0.53663847  0.86998166     0.36600
C4069       C  0.99460328  0.90913529  0.85251735    -0.20900
C4070       C  0.52750309  0.91266065  0.85613204    -0.20900
C4071       C  0.99235987  0.60724743  0.86015311    -0.20900
C4072       C  0.52426995  0.60814226  0.86277116    -0.20900
C4073       C  0.90843278  0.98872287  0.84453154    -0.22000
C4074       C  0.91175188  0.52085522  0.84829395    -0.22000
C4075       C  0.60925667  0.99928921  0.86045101    -0.22000
C4076       C  0.61136128  0.52898085  0.86372390    -0.22000
C4077       C  0.95306063  0.95013599  0.84387473    -0.17300
C4078       C  0.56767887  0.95653967  0.85501561    -0.17300
C4079       C  0.56667732  0.56723404  0.86270325    -0.17300
C4080       C  0.95357584  0.56261042  0.85331957    -0.17300
H4081       H  0.98051657  0.88788148  0.84630082     0.15600
H4082       H  0.54365888  0.89249763  0.85368992     0.15600
H4083       H  0.97699598  0.62681305  0.85256518     0.15600
H4084       H  0.53905291  0.62910694  0.85762701     0.15600
H4085       H  0.88920822  0.97350727  0.83500916     0.13900
H4086       H  0.89144485  0.53570906  0.84175976     0.13900
H4087       H  0.63019941  0.98599715  0.85341866     0.13900
H4088       H  0.63093762  0.54554970  0.85851877     0.13900
H4089       H  0.50921126  0.98771694  0.85486686     0.27100
H4090       H  0.50947674  0.53257530  0.87568195     0.27100
O4091       O  0.74914958  0.93993837  0.66142113    -0.74300
O4092       O  0.74814201  0.90689087  0.70536416    -0.53200
C4093       C  0.74790913  0.91179444  0.67482576     0.79400
O4094       O  0.84612210  0.55082074  0.74483743    -0.58900
O4095       O  0.80588800  0.58799857  0.74375861    -0.51900
C4096       C  0.83569022  0.57990572  0.74216155     0.71400
O4097       O  0.84258198  0.94060984  0.74852483    -0.73500
O4098       O  0.79843020  0.90752184  0.74987925    -0.54000
C4099       C  0.82909126  0.91234506  0.74808554     0.77400
O4100       O  0.74667779  0.55154343  0.65606303    -0.58600
O4101       O  0.75012080  0.58826539  0.69738937    -0.51700
C4102       C  0.74634878  0.58069277  0.66731546     0.74000
Zr4103     Zr  0.75121015  0.49725793  0.68060497     2.54700
O4104       O  0.79521006  0.49868219  0.64242644    -0.79200
O4105       O  0.71120301  0.49230356  0.63713316    -0.92600
Zr4106     Zr  0.82051612  0.49694937  0.74938389     2.64700
O4107       O  0.85743792  0.49171601  0.70421508    -0.97600
O4108       O  0.86454906  0.50028016  0.78829443    -0.79600
O4109       O  0.78485722  0.96615292  0.71493517    -0.83000
O4110       O  0.78745089  0.52779513  0.71385377    -2.17700
O4111       O  0.66306816  0.55987354  0.74924430    -0.66400
O4112       O  0.70723881  0.59296622  0.74790395    -0.50900
C4113       C  0.67653451  0.58825012  0.74813610     0.72400
O4114       O  0.74852566  0.94782193  0.84406612    -0.59300
O4115       O  0.74568770  0.91184702  0.80229191    -0.51200
C4116       C  0.74508639  0.91883050  0.83254869     0.74200
O4117       O  0.74982107  0.55735918  0.83902975    -0.70700
O4118       O  0.75361586  0.59237184  0.79671990    -0.49300
C4119       C  0.74993228  0.58600191  0.82687177     0.75600
O4120       O  0.65891812  0.94865934  0.74783324    -0.66000
O4121       O  0.69913801  0.91146477  0.74802021    -0.53200
C4122       C  0.66931908  0.91946306  0.74547805     0.74000
Zr4123     Zr  0.68468285  0.00282723  0.75141037     2.77500
O4124       O  0.64676372  0.00215149  0.79575444    -0.96700
O4125       O  0.64357034  0.00577422  0.70906309    -0.77600
Zr4126     Zr  0.75596301  0.00200359  0.81841593     2.70100
O4127       O  0.72319318  0.00220133  0.86698867    -0.78800
O4128       O  0.80577423  0.00524844  0.84991783    -0.97900
Zr4129     Zr  0.75023768  0.94034361  0.75229018     2.21500
Zr4130     Zr  0.75480079  0.55978857  0.74821293     2.11100
O4131       O  0.71875371  0.53277268  0.78391659    -2.46600
O4132       O  0.72235862  0.97634797  0.78209186    -0.78600
O4133       O  0.71838162  0.53063251  0.71377449    -0.70800
O4134       O  0.78859121  0.96836576  0.78548283    -2.31800
O4135       O  0.71572383  0.96952096  0.71669750    -2.28000
O4136       O  0.78890919  0.53032589  0.78399872    -0.72600
H4137       H  0.80053134  0.54116562  0.70000286     0.79400
H4138       H  0.80108774  0.95374163  0.79859778     0.80500
H4139       H  0.70612724  0.54757926  0.79652568     0.82700
H4140       H  0.70188987  0.95551151  0.70385107     0.80400
H4141       H  0.88719223  0.99344028  0.76830444     0.43400
H4142       H  0.80156274  0.47834784  0.86036125     0.42400
H4143       H  0.70149250  0.00857277  0.85928960     0.42000
H4144       H  0.64277992  0.52314796  0.80050095     0.40000
H4145       H  0.65036172  0.49096102  0.68950547     0.43100
H4146       H  0.71801051  0.99860874  0.61949332     0.37900
H4147       H  0.79528623  0.97517859  0.63433373     0.44000
H4148       H  0.84855881  0.50590860  0.68719062     0.40400
H4149       H  0.62527976  0.00050301  0.78512895     0.45300
H4150       H  0.69873047  0.47248967  0.64207370     0.44100
H4151       H  0.87747364  0.50280903  0.71159508     0.44200
H4152       H  0.80984023  0.02870815  0.85212688     0.44600
C4153       C  0.89212252  0.89082479  0.80853513    -0.11300
C4154       C  0.89817810  0.89390905  0.77529250     0.05700
C4155       C  0.92270788  0.91493902  0.76491569    -0.06600
C4156       C  0.94093547  0.93239768  0.78773499    -0.07300
C4157       C  0.93500384  0.92913352  0.82085791    -0.01900
C4158       C  0.91068773  0.90817467  0.83136842     0.04900
N4159       N  0.90386806  0.90605384  0.86505567     0.67400
H4160       H  0.87299585  0.87497313  0.81646929     0.16300
H4161       H  0.95944980  0.94901767  0.77960105     0.16100
N4162       N  0.92894577  0.91933169  0.73131046     0.75200
O4163       O  0.88030722  0.92156989  0.87571851    -0.38300
O4164       O  0.92621452  0.89852887  0.88446971    -0.38200
O4165       O  0.91761319  0.94369840  0.71721833    -0.38900
O4166       O  0.95248026  0.90499096  0.71889374    -0.39000
C4167       C  0.57338708  0.57248371  0.80385405    -0.11300
C4168       C  0.58214829  0.58370038  0.83492733     0.05700
C4169       C  0.60535272  0.60848500  0.83823994    -0.06600
C4170       C  0.61942504  0.62135565  0.81046250    -0.07300
C4171       C  0.61052204  0.61005073  0.77946798    -0.01900
C4172       C  0.58708797  0.58567571  0.77616211     0.04900
N4173       N  0.57689533  0.57416680  0.74502423     0.67400
H4174       H  0.55598214  0.55298721  0.80125447     0.16300
H4175       H  0.63740603  0.64037452  0.81291102     0.16100
N4176       N  0.61512102  0.62057327  0.86930047     0.75200
O4177       O  0.58711487  0.54741664  0.73503264    -0.38300
O4178       O  0.55175294  0.58563062  0.73228966    -0.38200
O4179       O  0.64141388  0.61118946  0.88147850    -0.38900
O4180       O  0.60301535  0.64643052  0.87950461    -0.39000
C4181       C  0.91104030  0.59818900  0.83084781    -0.11300
C4182       C  0.93803972  0.57908138  0.82572951     0.05700
C4183       C  0.94708721  0.57095798  0.79377400    -0.06600
C4184       C  0.92967182  0.58297285  0.76758211    -0.07300
C4185       C  0.90266453  0.60183966  0.77276739    -0.01900
C4186       C  0.89303927  0.60907227  0.80440452     0.04900
N4187       N  0.86558490  0.62839918  0.80977663     0.67400
H4188       H  0.90335484  0.60358323  0.85527795     0.16300
H4189       H  0.93684612  0.57722624  0.74307677     0.16100
N4190       N  0.97260498  0.54893423  0.78764035     0.75200
O4191       O  0.83912062  0.61528252  0.81723476    -0.38300
O4192       O  0.86944758  0.65834432  0.81319461    -0.38200
O4193       O  0.96568338  0.51982947  0.78154660    -0.38900
O4194       O  0.99983952  0.55983928  0.77962064    -0.39000
C4195       C  0.62201220  0.90157885  0.80591594    -0.11300
C4196       C  0.60478936  0.90100063  0.77645330     0.05700
C4197       C  0.57827303  0.92122575  0.77220828    -0.06600
C4198       C  0.56840771  0.94053221  0.79777601    -0.07300
C4199       C  0.58432924  0.93992653  0.82803694    -0.01900
C4200       C  0.61218268  0.92102166  0.83174606     0.04900
N4201       N  0.63132103  0.92193205  0.86071234     0.67400
H4202       H  0.64361930  0.88731466  0.80848217     0.16300
H4203       H  0.54748878  0.95565938  0.79429249     0.16100
N4204       N  0.56214455  0.92367966  0.74158931     0.75200
O4205       O  0.62486706  0.90250466  0.88310850    -0.38300
O4206       O  0.65918968  0.93441400  0.85982987    -0.38200
O4207       O  0.53451257  0.91107000  0.73803138    -0.38900
O4208       O  0.57103164  0.94529937  0.72214274    -0.39000
C4209       C  0.76484801  0.92307967  0.92169631    -0.11300
C4210       C  0.77408070  0.89830071  0.90112968     0.05700
C4211       C  0.80601108  0.88733656  0.90208879    -0.06600
C4212       C  0.82892408  0.90269983  0.92173098    -0.07300
C4213       C  0.82018617  0.92847882  0.94125661    -0.01900
C4214       C  0.78724570  0.93744929  0.94307438     0.04900
N4215       N  0.77574852  0.95895698  0.96774677     0.67400
H4216       H  0.73966480  0.92968465  0.92230894     0.16300
H4217       H  0.85355353  0.89427292  0.92208680     0.16100
N4218       N  0.81524444  0.85981172  0.88406553     0.75200
O4219       O  0.74818879  0.97136581  0.96495509    -0.38300
O4220       O  0.78973232  0.96029666  0.99495813    -0.38200
O4221       O  0.82777280  0.86374180  0.85666796    -0.38900
O4222       O  0.81920738  0.83363443  0.89891124    -0.39000
C4223       C  0.77305776  0.57779356  0.90570215    -0.11300
C4224       C  0.77910856  0.60833968  0.89355046     0.05700
C4225       C  0.80950192  0.62280434  0.89888932    -0.06600
C4226       C  0.83417580  0.60565868  0.91377967    -0.07300
C4227       C  0.82783983  0.57563050  0.92720559    -0.01900
C4228       C  0.79674126  0.56159383  0.92299369     0.04900
N4229       N  0.78775872  0.53204138  0.93790549     0.67400
H4230       H  0.74930045  0.56697750  0.90274694     0.16300
H4231       H  0.85789840  0.61664197  0.91645350     0.16100
N4232       N  0.81560450  0.65534284  0.89089535     0.75200
O4233       O  0.76996560  0.53364720  0.96236859    -0.38300
O4234       O  0.78637527  0.50690938  0.92061552    -0.38200
O4235       O  0.81415646  0.67588440  0.91341174    -0.38900
O4236       O  0.83433645  0.66062638  0.86777199    -0.39000
C4237       C  0.83617714  0.60974812  0.59158517    -0.11300
C4238       C  0.83386186  0.58059376  0.57498018     0.05700
C4239       C  0.80378567  0.56423620  0.57284482    -0.06600
C4240       C  0.77690422  0.57685726  0.58798789    -0.07300
C4241       C  0.77909992  0.60630768  0.60396116    -0.01900
C4242       C  0.80879392  0.62310064  0.60521736     0.04900
N4243       N  0.81110463  0.65479349  0.61798797     0.67400
H4244       H  0.85904368  0.62259449  0.59311497     0.16300
H4245       H  0.75397409  0.56413544  0.58654388     0.16100
N4246       N  0.80003542  0.53487550  0.55516626     0.75200
O4247       O  0.82203339  0.65886726  0.64627850    -0.38300
O4248       O  0.81310704  0.67759837  0.59814062    -0.38200
O4249       O  0.79410274  0.50940702  0.57053510    -0.38900
O4250       O  0.79239427  0.53619105  0.52561467    -0.39000
C4251       C  0.81037284  0.89839653  0.62900767    -0.11300
C4252       C  0.78101502  0.89620941  0.61145720     0.05700
C4253       C  0.77596963  0.91657907  0.58517020    -0.06600
C4254       C  0.80118021  0.93600888  0.57459972    -0.07300
C4255       C  0.83157072  0.93621536  0.59002887    -0.01900
C4256       C  0.83562140  0.91905733  0.61923625     0.04900
N4257       N  0.86464657  0.92173252  0.63882436     0.67400
H4258       H  0.81328518  0.88401176  0.65064762     0.16300
H4259       H  0.79735573  0.95066788  0.55352998     0.16100
N4260       N  0.74508025  0.91884115  0.56981737     0.75200
O4261       O  0.86458484  0.91247549  0.66791514    -0.38300
O4262       O  0.89093818  0.93131162  0.62687122    -0.38200
O4263       O  0.72617204  0.94065758  0.57886221    -0.38900
O4264       O  0.74071477  0.90596105  0.54237086    -0.39000
C4265       C  0.90226650  0.82757343  0.90470992    -0.11300
C4266       C  0.92320196  0.82152836  0.93076220     0.05700
C4267       C  0.93069554  0.78936473  0.93873913    -0.06600
C4268       C  0.91648510  0.76396672  0.92165053    -0.07300
C4269       C  0.89672787  0.77022556  0.89523160    -0.01900
C4270       C  0.89033156  0.80205102  0.88582266     0.04900
N4271       N  0.87419005  0.80837943  0.85569719     0.67400
H4272       H  0.89582775  0.85180925  0.89853375     0.16300
H4273       H  0.92173940  0.73929992  0.92818405     0.16100
N4274       N  0.95512831  0.78217791  0.96197071     0.75200
O4275       O  0.89090790  0.81570867  0.83142812    -0.38300
O4276       O  0.84540763  0.79911336  0.85122218    -0.38200
O4277       O  0.94710809  0.77131718  0.98921101    -0.38900
O4278       O  0.98305544  0.77679894  0.95173848    -0.39000
C4279       C  0.57792463  0.76791914  0.91001214    -0.11300
C4280       C  0.60569837  0.77726891  0.89395265     0.05700
C4281       C  0.61628900  0.80959592  0.89567969    -0.06600
C4282       C  0.59915141  0.83199721  0.91359769    -0.07300
C4283       C  0.57155910  0.82275820  0.92996642    -0.01900
C4284       C  0.56071320  0.79036062  0.92790065     0.04900
N4285       N  0.53196037  0.77978723  0.94320315     0.67400
H4286       H  0.56966387  0.74308204  0.90863926     0.16300
H4287       H  0.60752497  0.85665603  0.91509280     0.16100
N4288       N  0.64523398  0.81990816  0.88072072     0.75200
O4289       O  0.53450972  0.76425026  0.96925311    -0.38300
O4290       O  0.50715128  0.77548341  0.92570557    -0.38200
O4291       O  0.64419503  0.82911891  0.85163849    -0.38900
O4292       O  0.66798115  0.82954908  0.89892954    -0.39000
C4293       C  0.93891458  0.79103607  0.56882050    -0.11300
C4294       C  0.93294905  0.82225375  0.58041900     0.05700
C4295       C  0.91095582  0.82637969  0.60541931    -0.06600
C4296       C  0.89388626  0.80011292  0.61722675    -0.07300
C4297       C  0.89922383  0.76918639  0.60522289    -0.01900
C4298       C  0.92283428  0.76431227  0.58167962     0.04900
N4299       N  0.93164841  0.73268930  0.57165920     0.67400
H4300       H  0.95581652  0.78754944  0.54938152     0.16300
H4301       H  0.87592404  0.80378575  0.63573918     0.16100
N4302       N  0.90226686  0.85744067  0.61594971     0.75200
O4303       O  0.95461871  0.71905194  0.58619204    -0.38300
O4304       O  0.92337826  0.72279478  0.54382402    -0.38200
O4305       O  0.91228875  0.86731724  0.64325769    -0.38900
O4306       O  0.87672997  0.86866064  0.60406980    -0.39000
C4307       C  0.60742716  0.83852309  0.59606260    -0.11300
C4308       C  0.57808272  0.83390931  0.57959816     0.05700
C4309       C  0.56521268  0.80244940  0.57615295    -0.06600
C4310       C  0.58058829  0.77663785  0.59050623    -0.07300
C4311       C  0.60976375  0.78107435  0.60686696    -0.01900
C4312       C  0.62393658  0.81199435  0.60864149     0.04900
N4313       N  0.65616102  0.81636000  0.61994419     0.67400
H4314       H  0.61830367  0.86235168  0.59746306     0.16300
H4315       H  0.57019379  0.75264745  0.58815790     0.16100
N4316       N  0.53718165  0.79603659  0.55690581     0.75200
O4317       O  0.66111918  0.83099687  0.64633893    -0.38300
O4318       O  0.67837406  0.81564317  0.59938909    -0.38200
O4319       O  0.54073049  0.78806488  0.52769036    -0.38900
O4320       O  0.51154580  0.78811168  0.57097073    -0.39000
loop_ 
_geom_bond_atom_site_label_1 
_geom_bond_atom_site_label_2 
_geom_bond_distance 
_geom_bond_site_symmetry_2 
_ccdc_geom_bond_type 
O1            C3   1.292       .  A
O1         Zr553   2.478   1_554  S
O2            C3   1.285       .  A
O2          Zr39   2.403       .  S
C3           C74   1.486       .  S
O4            C6   1.293       .  A
O4          Zr16   2.478       .  S
O5            C6   1.284       .  A
O5          Zr40   2.411       .  S
C6          C212   1.484       .  S
O7            C9   1.295       .  A
O7         Zr556   2.504       .  S
O8            C9   1.284       .  A
O8          Zr39   2.403       .  S
C9          C191   1.498       .  S
O10          C12   1.301       .  A
O10         Zr13   2.525       .  S
O11          C12   1.282       .  A
O11         Zr40   2.398       .  S
C12          C85   1.508       .  S
Zr13        O541   2.484       .  S
Zr13         O14   2.417       .  S
Zr13         O15   2.435       .  S
Zr13         O20   2.385       .  S
Zr13         O43   2.378       .  S
Zr13        O559   2.404       .  S
Zr13        O585   2.391       .  S
O14         H597   0.990       .  S
O15          H60   0.990       .  S
O15         H596   0.990       .  S
Zr16        O547   2.498       .  S
Zr16         O17   2.417       .  S
Zr16         O18   2.436       .  S
Zr16         O20   2.401       .  S
Zr16         O46   2.384       .  S
Zr16        O559   2.386       .  S
Zr16        O584   2.379       .  S
O17          H58   0.990       .  S
O17          H61   0.990       .  S
O18         H591   0.990       .  S
O19         Zr39   2.377       .  S
O19        Zr553   2.401   1_554  S
O19        Zr556   2.381       .  S
O20         Zr40   2.379       .  S
O20          H47   0.967       .  S
O21          C23   1.292       .  A
O21        Zr573   2.473       .  S
O22          C23   1.284       .  A
O22         Zr40   2.412       .  S
C23         C202   1.474       .  S
O24          C26   1.291       .  A
O24         Zr36   2.469   1_554  S
O25          C26   1.289       .  A
O25         Zr39   2.443       .  S
C26          C67   1.488       .  S
O27          C29   1.295       .  A
O27        Zr576   2.488       .  S
O28          C29   1.278       .  A
O28         Zr40   2.382       .  S
C29          C78   1.480       .  S
O30          C32   1.297       .  A
O30         Zr33   2.501   1_554  S
O31          C32   1.284       .  A
O31         Zr39   2.416       .  S
C32         C195   1.496       .  S
Zr33        O561   2.474       .  S
Zr33         O34   2.435       .  S
Zr33         O35   2.434       .  S
Zr33         O45   2.369   1_556  S
Zr33        O581   2.382       .  S
Zr33        O583   2.388       .  S
Zr33         O42   2.278   1_556  S
O34          H59   0.990   1_556  S
O34         H594   0.990   1_556  S
O35         H595   0.990   1_556  S
Zr36        O567   2.494       .  S
Zr36         O37   2.434       .  S
Zr36         O38   2.433       .  S
Zr36         O44   2.386   1_556  S
Zr36        O581   2.374       .  S
Zr36        O586   2.365       .  S
Zr36         O42   2.286   1_556  S
O37          H53   0.990       .  S
O38          H62   0.989       .  S
O38         H592   0.990   1_556  S
Zr39         O44   2.375       .  S
Zr39         O45   2.384       .  S
Zr39         O42   2.255       .  S
Zr40         O41   2.385       .  S
Zr40         O43   2.378       .  S
Zr40         O46   2.370       .  S
O41        Zr573   2.381       .  S
O41        Zr576   2.370       .  S
O41          H49   0.966       .  S
O43        Zr573   2.389       .  S
O44        Zr556   2.387       .  S
O44          H48   0.964       .  S
O45        Zr553   2.396   1_554  S
O45          H50   0.980       .  S
O46        Zr576   2.367       .  S
H51         O558   0.990       .  S
H52         O578   0.990       .  S
H54         O574   0.990       .  S
H55         O575   0.990       .  S
H56         O555   0.990   1_556  S
H57         O554   0.990   1_556  S
N63          C67   1.362       .  A
N63          C64   1.365       .  A
N63         C531   1.429       .  S
C64         C127   1.490       .  S
C64          C65   1.379       .  A
C65          C66   1.375       .  A
C65          H68   1.083       .  S
C66          C67   1.378       .  A
C66          H69   1.079       .  S
N70          C74   1.364       .  A
N70          C71   1.362       .  A
N70         C517   1.427       .  S
C71         C136   1.481       .  S
C71          C72   1.382       .  A
C72          C73   1.355       .  A
C72          H75   1.083       .  S
C73          C74   1.381       .  A
C73          H76   1.083       .  S
N77          C81   1.356       .  A
N77          C78   1.356       .  A
N77         C500   1.427       .  S
C78          C79   1.380       .  A
C79          C80   1.365       .  A
C79          H82   1.080       .  S
C80          C81   1.382       .  A
C80          H83   1.083       .  S
C81         C150   1.472       .  S
N84          C88   1.366       .  A
N84          C85   1.364       .  A
N84         C489   1.414       .  S
C85          C86   1.382       .  A
C86          C87   1.369       .  A
C86          H89   1.083       .  S
C87          C88   1.384       .  A
C87          H90   1.081       .  S
C88         C153   1.510       .  S
N91          C96   1.352       .  A
N91         C635   1.352       .  A
N91         H123   1.029       .  S
N92         C100   1.349       .  A
N92        C2259   1.349   1_455  A
N93          C98   1.347       .  A
N93         C637   1.346       .  A
N93         H124   1.034       .  S
N94         C102   1.352       .  A
N94        C2261   1.348   1_455  A
C95         N631   1.355       .  A
C95         C103   1.384       .  A
C95         C111   1.413       .  A
C96         C112   1.411       .  A
C96         C104   1.380       .  A
C97         N633   1.346       .  A
C97         C105   1.390       .  A
C97         C114   1.405       .  A
C98         C113   1.402       .  A
C98         C106   1.383       .  A
C99        N2252   1.347       .  A
C99         C111   1.407       .  A
C99         C107   1.385       .  A
C100        C114   1.410       .  A
C100        C108   1.385       .  A
C101       N2254   1.348       .  A
C101        C109   1.381       .  A
C101        C112   1.409       .  A
C102        C110   1.382       .  A
C102        C113   1.410       .  A
C103        C644   1.364   1_554  A
C103        H115   1.082       .  S
C104        C643   1.367       .  A
C104        H116   1.082       .  S
C105        C646   1.373   1_554  A
C105        H117   1.081       .  S
C106        C645   1.374       .  A
C106        H118   1.082       .  S
C107       C2268   1.370       .  A
C107        H119   1.080       .  S
C108       C2267   1.371   1_455  A
C108        H120   1.083       .  S
C109       C2270   1.363       .  A
C109        H121   1.081       .  S
C110       C2269   1.360   1_455  A
C110        H122   1.079       .  S
C111        C514   1.488       .  S
C112        C486   1.485       .  S
C113        C503   1.482       .  S
C114        C528   1.478       .  S
O125        C127   1.293       .  A
O125      Zr2297   2.478   1_455  S
O126        C127   1.288       .  A
O126       Zr163   2.438       .  S
O128        C130   1.291       .  A
O128       Zr140   2.479       .  S
O129        C130   1.291       .  A
O129       Zr164   2.440       .  S
C130        C274   1.498       .  S
O131        C133   1.291       .  A
O131      Zr2300   2.482   1_455  S
O132        C133   1.288       .  A
O132       Zr163   2.426       .  S
C133        C250   1.490       .  S
O134        C136   1.294       .  A
O134       Zr137   2.489       .  S
O135        C136   1.278       .  A
O135       Zr164   2.369       .  S
Zr137      O2285   2.482       .  S
Zr137       O138   2.419       .  S
Zr137       O139   2.435       .  S
Zr137       O144   2.378       .  S
Zr137       O167   2.369       .  S
Zr137      O2329   2.382       .  S
Zr137      O2303   2.283       .  S
O138       H2341   0.990       .  S
O139        H184   0.990       .  S
O139       H2340   0.990       .  S
Zr140      O2291   2.477       .  S
Zr140       O142   2.435       .  S
Zr140      O2301   2.436       .  S
Zr140       O144   2.386       .  S
Zr140       O170   2.389       .  S
Zr140      O2328   2.382       .  S
Zr140      O2303   2.289       .  S
O141      Zr2300   2.436       .  S
O141       H2342   0.990   1_655  S
O141       H2345   0.990       .  S
O142       H2335   0.990       .  S
O143       Zr163   2.370       .  S
O143      Zr2297   2.385   1_455  S
O143      Zr2300   2.389   1_455  S
O144       Zr164   2.378       .  S
O144        H171   0.966       .  S
O145        C147   1.292       .  A
O145      Zr2317   2.470       .  S
O146        C147   1.287       .  A
O146       Zr164   2.430       .  S
C147        C257   1.484       .  S
O148        C150   1.296       .  A
O148       Zr160   2.493       .  S
O149        C150   1.278       .  A
O149       Zr163   2.373       .  S
O151        C153   1.303       .  A
O151      Zr2320   2.532       .  S
O152        C153   1.282       .  A
O152       Zr164   2.396       .  S
O154        C156   1.295       .  A
O154       Zr157   2.496       .  S
O155        C156   1.287       .  A
O155       Zr163   2.421       .  S
C156        C264   1.500       .  S
Zr157      O2305   2.462   1_455  S
Zr157       O158   2.429       .  S
Zr157       O159   2.432       .  S
Zr157       O166   2.371       .  S
Zr157       O169   2.372       .  S
Zr157      O2325   2.390   1_455  S
Zr157      O2327   2.388   1_455  S
O158        H183   0.990       .  S
O158       H2338   0.989   1_455  S
O159       H2339   0.990       .  S
Zr160      O2311   2.528   1_455  S
Zr160       O161   2.436   1_455  S
Zr160       O162   2.428       .  S
Zr160       O166   2.386       .  S
Zr160       O168   2.403       .  S
Zr160      O2325   2.377   1_455  S
Zr160      O2330   2.283   1_455  S
O161        H177   0.990   1_655  S
O162        H186   0.990       .  S
O162       H2336   0.989   1_455  S
Zr163       O166   2.388       .  S
Zr163       O168   2.397       .  S
Zr163       O169   2.374       .  S
Zr164       O165   2.381       .  S
Zr164       O167   2.380       .  S
Zr164       O170   2.372       .  S
O165      Zr2317   2.390       .  S
O165      Zr2320   2.379       .  S
O165        H173   0.966       .  S
O167      Zr2317   2.385       .  S
O168      Zr2300   2.379   1_455  S
O168        H172   0.965       .  S
O169      Zr2297   2.380   1_455  S
O169        H174   0.965       .  S
O170      Zr2320   2.383       .  S
H175       O2302   0.990       .  S
H176       O2322   0.990       .  S
H178       O2318   0.989       .  S
H179       O2319   0.990       .  S
H180       O2299   0.990   1_455  S
H181       O2298   0.990       .  S
H182       O2301   0.990       .  S
H185       O2301   0.990       .  S
N187        C191   1.369       .  A
N187        C188   1.358       .  A
N187        C472   1.433       .  S
C188        C313   1.480       .  S
C188        C189   1.379       .  A
C189        C190   1.362       .  A
C189        H192   1.082       .  S
C190        C191   1.385       .  A
C190        H193   1.083       .  S
N194        C198   1.364       .  A
N194        C195   1.362       .  A
N194        C461   1.424       .  S
C195        C196   1.378       .  A
C196        C197   1.372       .  A
C196        H199   1.075       .  S
C197        C198   1.375       .  A
C197        H200   1.074       .  S
C198        C322   1.496       .  S
N201        C205   1.361       .  A
N201        C202   1.354       .  A
N201        C444   1.428       .  S
C202        C203   1.378       .  A
C203        C204   1.371       .  A
C203        H206   1.075       .  S
C204        C205   1.379       .  A
C204        H207   1.083       .  S
C205        C339   1.478       .  S
N208        C212   1.359       .  A
N208        C209   1.362       .  A
N208        C430   1.427       .  S
C209        C336   1.492       .  S
C209        C210   1.385       .  A
C210        C211   1.371       .  A
C210        H213   1.082       .  S
C211        C212   1.377       .  A
C211        H214   1.082       .  S
N215        C219   1.355       .  A
N215       C1300   1.350       .  A
N215        H247   1.034       .  S
N216        C224   1.347       .  A
N216        C763   1.346       .  A
N217        C221   1.344       .  A
N217       C1302   1.345       .  A
N217        H248   1.038       .  S
N218        C226   1.350       .  A
N218        C765   1.345       .  A
C219        C227   1.384       .  A
C219        C235   1.413       .  A
C220       N1295   1.351       .  A
C220        C236   1.410       .  A
C220        C228   1.387       .  A
C221        C229   1.383       .  A
C221        C238   1.396       .  A
C222       N1297   1.345       .  A
C222        C237   1.398       .  A
C222        C230   1.381       .  A
C223        N756   1.345       .  A
C223        C235   1.409       .  A
C223        C231   1.386       .  A
C224        C238   1.401       .  A
C224        C232   1.372       .  A
C225        N758   1.346       .  A
C225        C233   1.389       .  A
C225        C236   1.407       .  A
C226        C234   1.383       .  A
C226        C237   1.408       .  A
C227       C1308   1.364       .  A
C227        H239   1.078       .  S
C228       C1307   1.365   1_545  A
C228        H240   1.083       .  S
C229       C1310   1.369       .  A
C229        H241   1.080       .  S
C230       C1309   1.368   1_545  A
C230        H242   1.078       .  S
C231        C772   1.368   1_554  A
C231        H243   1.081       .  S
C232        C771   1.367       .  A
C232        H244   1.078       .  S
C233        C774   1.364   1_554  A
C233        H245   1.081       .  S
C234        C773   1.364       .  A
C234        H246   1.079       .  S
C235        C475   1.488       .  S
C236        C458   1.478       .  S
C237        C447   1.481       .  S
C238        C433   1.478       .  S
N249        C253   1.357       .  A
N249        C250   1.365       .  A
N249        C416   1.429       .  S
C250        C251   1.381       .  A
C251        C252   1.373       .  A
C251        H254   1.081       .  S
C252        C253   1.377       .  A
C252        H255   1.079       .  S
C253        C342   1.484       .  S
N256        C260   1.355       .  A
N256        C257   1.356       .  A
N256        C405   1.423       .  S
C257        C258   1.380       .  A
C258        C259   1.377       .  A
C258        H261   1.077       .  S
C259        C260   1.374       .  A
C259        H262   1.078       .  S
C260        C316   1.478       .  S
N263        C267   1.370       .  A
N263        C264   1.369       .  A
N263        C391   1.431       .  S
C264        C265   1.381       .  A
C265        C266   1.366       .  A
C265        H268   1.083       .  S
C266        C267   1.384       .  A
C266        H269   1.081       .  S
C267        C333   1.508       .  S
N270        C274   1.370       .  A
N270        C271   1.369       .  A
N270        C374   1.437       .  S
C271        C319   1.500       .  S
C271        C272   1.383       .  A
C272        C273   1.370       .  A
C272        H275   1.083       .  S
C273        C274   1.382       .  A
C273        H276   1.083       .  S
N277        C282   1.349       .  A
N277       C2441   1.350   1_455  A
N277        H309   1.036       .  S
N278        C285   1.348       .  A
N278       C1366   1.345       .  A
N279        C284   1.358       .  A
N279       C2443   1.355   1_455  A
N279        H310   1.035       .  S
N280        C287   1.355       .  A
N280       C1368   1.352       .  A
C281       N2437   1.350       .  A
C281        C289   1.381       .  A
C281        C297   1.404       .  A
C282        C298   1.409       .  A
C282        C290   1.388       .  A
C283       N2439   1.355       .  A
C283        C291   1.384       .  A
C283        C300   1.415       .  A
C284        C299   1.418       .  A
C284        C292   1.386       .  A
C285        C297   1.405       .  A
C285        C293   1.381       .  A
C286       N1358   1.343       .  A
C286        C300   1.405       .  A
C286        C294   1.389       .  A
C287        C295   1.380       .  A
C287        C298   1.413       .  A
C288       N1360   1.350       .  A
C288        C296   1.388       .  A
C288        C299   1.413       .  A
C289       C2450   1.370       .  A
C289        H301   1.081       .  S
C290       C2449   1.373       .  A
C290        H302   1.082       .  S
C291       C2452   1.371       .  A
C291        H303   1.082       .  S
C292       C2451   1.369   1_455  A
C292        H304   1.082       .  S
C293       C1374   1.364       .  A
C293        H305   1.081       .  S
C294       C1373   1.365   1_545  A
C294        H306   1.081       .  S
C295       C1376   1.368       .  A
C295        H307   1.077       .  S
C296       C1375   1.369   1_545  A
C296        H308   1.083       .  S
C297        C377   1.480       .  S
C298        C419   1.488       .  S
C299        C388   1.488       .  S
C300        C402   1.478       .  S
O311        C313   1.297       .  A
O311      Zr1403   2.493       .  S
O312        C313   1.278       .  A
O312       Zr349   2.374       .  S
O314        C316   1.291       .  A
O314       Zr326   2.470   1_545  S
O315        C316   1.286       .  A
O315       Zr350   2.420       .  S
O317        C319   1.294       .  A
O317      Zr1406   2.488       .  S
O318        C319   1.290       .  A
O318       Zr349   2.437       .  S
O320        C322   1.295       .  A
O320       Zr323   2.489   1_545  S
O321        C322   1.288       .  A
O321       Zr350   2.432       .  S
Zr323      O1391   2.495       .  S
Zr323       O324   2.426       .  S
Zr323       O325   2.436       .  S
Zr323       O330   2.378   1_565  S
Zr323       O353   2.384   1_565  S
Zr323      O1409   2.381       .  S
Zr323      O1435   2.364       .  S
O324       H1447   0.990   1_565  S
O325        H370   0.990       .  S
O325       H1446   0.990       .  S
Zr326      O1397   2.486       .  S
Zr326       O327   2.431       .  S
Zr326       O328   2.428   1_565  S
Zr326       O330   2.390   1_565  S
Zr326       O356   2.391   1_565  S
Zr326      O1409   2.377       .  S
Zr326      O1434   2.391       .  S
O327        H368   0.989       .  S
O327        H371   0.990   1_565  S
O328       H1441   0.990       .  S
O329       Zr349   2.374       .  S
O329      Zr1403   2.381       .  S
O329      Zr1406   2.376       .  S
O330       Zr350   2.384       .  S
O330        H357   0.966       .  S
O331        C333   1.299       .  A
O331      Zr1423   2.511       .  S
O332        C333   1.287       .  A
O332       Zr350   2.422       .  S
O334        C336   1.296       .  A
O334       Zr346   2.499       .  S
O335        C336   1.283       .  A
O335       Zr349   2.401       .  S
O337        C339   1.293       .  A
O337      Zr1426   2.476       .  S
O338        C339   1.285       .  A
O338       Zr350   2.417       .  S
O340        C342   1.294       .  A
O340       Zr343   2.478       .  S
O341        C342   1.287       .  A
O341       Zr349   2.427       .  S
Zr343      O1411   2.511       .  S
Zr343       O344   2.428       .  S
Zr343       O345   2.434       .  S
Zr343       O352   2.396       .  S
Zr343       O355   2.383       .  S
Zr343      O1431   2.369       .  S
Zr343      O1433   2.377       .  S
O344        H369   0.990       .  S
O344       H1444   0.990       .  S
O345       H1445   0.990       .  S
Zr346      O1417   2.471       .  S
Zr346       O347   2.434       .  S
Zr346       O348   2.427       .  S
Zr346       O352   2.382       .  S
Zr346       O354   2.381       .  S
Zr346      O1431   2.389       .  S
Zr346      O1436   2.395       .  S
O347        H363   0.990       .  S
O348        H372   0.990       .  S
O348       H1442   0.989       .  S
Zr349       O352   2.376       .  S
Zr349       O354   2.373       .  S
Zr349       O355   2.384       .  S
Zr350       O351   2.385       .  S
Zr350       O353   2.374       .  S
Zr350       O356   2.387       .  S
O351      Zr1423   2.372       .  S
O351      Zr1426   2.391       .  S
O351        H359   0.965       .  S
O353      Zr1423   2.379       .  S
O354      Zr1406   2.394       .  S
O354        H358   0.966       .  S
O355      Zr1403   2.365       .  S
O355        H360   0.965       .  S
O356      Zr1426   2.394       .  S
H361       O1408   0.991       .  S
H362       O1428   0.990   1_565  S
H364       O1424   0.990       .  S
H365       O1425   0.990       .  S
H366       O1405   0.990       .  S
H367       O1404   0.990       .  S
C373        C374   1.406       .  A
C373        C378   1.404       .  A
C373        H380   1.080       .  S
C374        C375   1.407       .  A
C375        N382   1.426       .  S
C375        C376   1.397       .  A
C376        C377   1.398       .  A
C376        H381   1.084       .  S
C377        C378   1.398       .  A
C378        N379   1.425       .  S
N379        O383   1.258       .  A
N379        O384   1.261       .  A
N382        O386   1.261       .  A
N382        O385   1.262       .  A
C387        C388   1.405       .  A
C387        C392   1.394       .  A
C387        H394   1.083       .  S
C388        C389   1.408       .  A
C389        N396   1.428       .  S
C389        C390   1.400       .  A
C390        C391   1.405       .  A
C390        H395   1.084       .  S
C391        C392   1.400       .  A
C392        N393   1.427       .  S
N393        O397   1.261       .  A
N393        O398   1.261       .  A
N396        O400   1.262       .  A
N396        O399   1.262       .  A
C401        C402   1.397       .  A
C401        C406   1.395       .  A
C401        H408   1.084       .  S
C402        C403   1.416       .  A
C403        N410   1.428       .  S
C403        C404   1.391       .  A
C404        C405   1.391       .  A
C404        H409   1.084       .  S
C405        C406   1.401       .  A
C406        N407   1.419       .  S
N407        O411   1.262       .  A
N407        O412   1.258       .  A
N410        O414   1.260       .  A
N410        O413   1.262       .  A
C415        C416   1.405       .  A
C415        C420   1.404       .  A
C415        H422   1.082       .  S
C416        C417   1.400       .  A
C417        N424   1.428       .  S
C417        C418   1.389       .  A
C418        C419   1.406       .  A
C418        H423   1.085       .  S
C419        C420   1.411       .  A
C420        N421   1.430       .  S
N421        O425   1.260       .  A
N421        O426   1.262       .  A
N424        O428   1.262       .  A
N424        O427   1.262       .  A
C429        C430   1.390       .  A
C429        C434   1.400       .  A
C429        H436   1.083       .  S
C430        C431   1.403       .  A
C431        N438   1.419       .  S
C431        C432   1.392       .  A
C432        C433   1.391       .  A
C432        H437   1.082       .  S
C433        C434   1.423       .  A
C434        N435   1.439       .  S
N435        O439   1.263       .  A
N435        O440   1.259       .  A
N438        O442   1.261       .  A
N438        O441   1.261       .  A
C443        C444   1.387       .  A
C443        C448   1.387       .  A
C443        H450   1.084       .  S
C444        C445   1.408       .  A
C445        N452   1.416       .  S
C445        C446   1.394       .  A
C446        C447   1.392       .  A
C446        H451   1.084       .  S
C447        C448   1.416       .  A
C448        N449   1.423       .  S
N449        O453   1.261       .  A
N449        O454   1.261       .  A
N452        O456   1.258       .  A
N452        O455   1.260       .  A
C457        C458   1.390       .  A
C457        C462   1.392       .  A
C457        H464   1.084       .  S
C458        C459   1.415       .  A
C459        N466   1.423       .  S
C459        C460   1.389       .  A
C460        C461   1.387       .  A
C460        H465   1.084       .  S
C461        C462   1.408       .  A
C462        N463   1.416       .  S
N463        O467   1.258       .  A
N463        O468   1.258       .  A
N466        O470   1.259       .  A
N466        O469   1.259       .  A
C471        C472   1.409       .  A
C471        C476   1.409       .  A
C471        H478   1.083       .  S
C472        C473   1.395       .  A
C473        N480   1.427       .  S
C473        C474   1.392       .  A
C474        C475   1.406       .  A
C474        H479   1.080       .  S
C475        C476   1.411       .  A
C476        N477   1.444       .  S
N477        O481   1.262       .  A
N477        O482   1.263       .  A
N480        O484   1.259       .  A
N480        O483   1.262       .  A
C485        C486   1.399       .  A
C485        C490   1.394       .  A
C485        H492   1.074       .  S
C486        C487   1.413       .  A
C487        N494   1.421       .  S
C487        C488   1.388       .  A
C488        C489   1.384       .  A
C488        H493   1.084       .  S
C489        C490   1.405       .  A
C490        N491   1.431       .  S
N491        O495   1.261       .  A
N491        O496   1.261       .  A
N494        O498   1.259       .  A
N494        O497   1.260       .  A
C499        C500   1.390       .  A
C499        C504   1.391       .  A
C499        H506   1.084       .  S
C500        C501   1.411       .  A
C501        N508   1.427       .  S
C501        C502   1.396       .  A
C502        C503   1.397       .  A
C502        H507   1.080       .  S
C503        C504   1.414       .  A
C504        N505   1.426       .  S
N505        O509   1.260       .  A
N505        O510   1.259       .  A
N508        O512   1.259       .  A
N508        O511   1.261       .  A
C513        C514   1.405       .  A
C513        C518   1.399       .  A
C513        H520   1.081       .  S
C514        C515   1.397       .  A
C515        N522   1.409       .  S
C515        C516   1.387       .  A
C516        C517   1.393       .  A
C516        H521   1.084       .  S
C517        C518   1.404       .  A
C518        N519   1.426       .  S
N519        O523   1.261       .  A
N519        O524   1.261       .  A
N522        O526   1.258       .  A
N522        O525   1.262       .  A
C527        C528   1.398       .  A
C527        C532   1.399       .  A
C527        H534   1.083       .  S
C528        C529   1.414       .  A
C529        N536   1.428       .  S
C529        C530   1.386       .  A
C530        C531   1.393       .  A
C530        H535   1.084       .  S
C531        C532   1.407       .  A
C532        N533   1.421       .  S
N533        O537   1.259       .  A
N533        O538   1.260       .  A
N536        O540   1.259       .  A
N536        O539   1.260       .  A
O541        C543   1.293       .  A
O542        C543   1.283       .  A
O542       Zr579   2.395       .  S
C543        C614   1.486       .  S
O544        C546   1.296       .  A
O544       Zr556   2.491   1_556  S
O545        C546   1.285       .  A
O545       Zr580   2.412       .  S
C546        C752   1.492       .  S
O547        C549   1.293       .  A
O548        C549   1.283       .  A
O548       Zr579   2.403       .  S
C549        C731   1.496       .  S
O550        C552   1.301       .  A
O550       Zr553   2.522       .  S
O551        C552   1.281       .  A
O551       Zr580   2.395       .  S
C552        C625   1.507       .  S
Zr553       O554   2.422   1_556  S
Zr553       O555   2.435   1_556  S
Zr553       O560   2.387       .  S
Zr553       O583   2.374       .  S
O555        H600   0.990       .  S
Zr556       O557   2.411       .  S
Zr556       O558   2.431       .  S
Zr556       O560   2.399   1_554  S
Zr556       O586   2.384   1_554  S
O557        H598   0.989       .  S
O557        H601   0.990       .  S
O559       Zr579   2.379       .  S
O560       Zr580   2.378       .  S
O560        H587   0.967       .  S
O561        C563   1.293       .  A
O562        C563   1.284       .  A
O562       Zr580   2.413       .  S
C563        C742   1.478       .  S
O564        C566   1.291       .  A
O564       Zr576   2.468       .  S
O565        C566   1.289       .  A
O565       Zr579   2.439       .  S
C566        C607   1.485       .  S
O567        C569   1.296       .  A
O568        C569   1.278       .  A
O568       Zr580   2.381       .  S
C569        C618   1.486       .  S
O570        C572   1.296       .  A
O570       Zr573   2.497       .  S
O571        C572   1.284       .  A
O571       Zr579   2.412       .  S
C572        C735   1.494       .  S
Zr573       O574   2.436       .  S
Zr573       O575   2.432       .  S
Zr573       O585   2.367       .  S
Zr573       O582   2.275       .  S
O574        H599   0.990       .  S
Zr576       O577   2.434       .  S
Zr576       O578   2.431       .  S
Zr576       O584   2.383       .  S
Zr576       O582   2.284       .  S
O577        H593   0.990       .  S
O578        H602   0.990       .  S
Zr579       O584   2.368       .  S
Zr579       O585   2.381       .  S
Zr579       O582   2.253       .  S
Zr580       O581   2.385       .  S
Zr580       O583   2.375       .  S
Zr580       O586   2.370       .  S
O581        H589   0.966       .  S
O584        H588   0.964       .  S
O585        H590   0.980       .  S
N603        C607   1.360       .  A
N603        C604   1.364       .  A
N603       C1071   1.429       .  S
C604        C667   1.487       .  S
C604        C605   1.379       .  A
C605        C606   1.374       .  A
C605        H608   1.082       .  S
C606        C607   1.378       .  A
C606        H609   1.078       .  S
N610        C614   1.363       .  A
N610        C611   1.362       .  A
N610       C1057   1.427       .  S
C611        C676   1.480       .  S
C611        C612   1.381       .  A
C612        C613   1.356       .  A
C612        H615   1.083       .  S
C613        C614   1.382       .  A
C613        H616   1.083       .  S
N617        C621   1.359       .  A
N617        C618   1.358       .  A
N617       C1040   1.427       .  S
C618        C619   1.380       .  A
C619        C620   1.364       .  A
C619        H622   1.080       .  S
C620        C621   1.383       .  A
C620        H623   1.083       .  S
C621        C690   1.480       .  S
N624        C628   1.365       .  A
N624        C625   1.363       .  A
N624       C1029   1.415       .  S
C625        C626   1.381       .  A
C626        C627   1.368       .  A
C626        H629   1.083       .  S
C627        C628   1.384       .  A
C627        H630   1.081       .  S
C628        C693   1.509       .  S
N631        C636   1.354   1_554  A
N631        H663   1.034       .  S
N632       C2799   1.348   1_455  A
N632        C640   1.348       .  A
N633        C638   1.347   1_554  A
N633        H664   1.035       .  S
N634       C2801   1.347   1_455  A
N634        C642   1.350       .  A
C635        C643   1.384       .  A
C635        C651   1.413       .  A
C636        C652   1.412       .  A
C636        C644   1.382       .  A
C637        C645   1.389       .  A
C637        C654   1.406       .  A
C638        C653   1.400       .  A
C638        C646   1.382       .  A
C639       N2792   1.349       .  A
C639        C651   1.410       .  A
C639        C647   1.384       .  A
C640        C654   1.409       .  A
C640        C648   1.385       .  A
C641       N2794   1.348       .  A
C641        C649   1.385       .  A
C641        C652   1.410       .  A
C642        C650   1.382       .  A
C642        C653   1.408       .  A
C643        H655   1.082       .  S
C644        H656   1.082       .  S
C645        H657   1.081       .  S
C646        H658   1.082       .  S
C647       C2808   1.372       .  A
C647        H659   1.081       .  S
C648       C2807   1.370   1_455  A
C648        H660   1.082       .  S
C649       C2810   1.359       .  A
C649        H661   1.081       .  S
C650       C2809   1.360   1_455  A
C650        H662   1.078       .  S
C651       C1054   1.488       .  S
C652       C1026   1.483       .  S
C653       C1043   1.480       .  S
C654       C1068   1.477       .  S
O665        C667   1.294       .  A
O665      Zr2837   2.484   1_455  S
O666        C667   1.286       .  A
O666       Zr703   2.428       .  S
O668        C670   1.292       .  A
O668       Zr680   2.478       .  S
O669        C670   1.291       .  A
O669       Zr704   2.441       .  S
C670        C814   1.498       .  S
O671        C673   1.292       .  A
O671      Zr2840   2.482   1_455  S
O672        C673   1.288       .  A
O672       Zr703   2.429       .  S
C673        C790   1.491       .  S
O674        C676   1.294       .  A
O674       Zr677   2.485       .  S
O675        C676   1.278       .  A
O675       Zr704   2.371       .  S
Zr677      O2825   2.483       .  S
Zr677       O678   2.420       .  S
Zr677       O679   2.435       .  S
Zr677       O684   2.378       .  S
Zr677       O707   2.368       .  S
Zr677      O2869   2.381       .  S
Zr677      O2843   2.280       .  S
O678       H2881   0.990       .  S
O679       H2880   0.990       .  S
O679        H724   0.990       .  S
Zr680      O2831   2.480       .  S
Zr680      O2841   2.436       .  S
Zr680       O682   2.431       .  S
Zr680       O684   2.385       .  S
Zr680      O2868   2.383       .  S
Zr680       O710   2.390       .  S
Zr680      O2843   2.287       .  S
O681      Zr2840   2.437       .  S
O681       H2882   0.990   1_655  S
O681       H2885   0.990       .  S
O682       H2875   0.990       .  S
O683      Zr2837   2.380   1_455  S
O683      Zr2840   2.390   1_455  S
O683       Zr703   2.376       .  S
O684       Zr704   2.377       .  S
O684        H711   0.966       .  S
O685        C687   1.289       .  A
O685      Zr2857   2.461       .  S
O686        C687   1.287       .  A
O686       Zr704   2.430       .  S
C687        C797   1.479       .  S
O688        C690   1.297       .  A
O688       Zr700   2.494       .  S
O689        C690   1.280       .  A
O689       Zr703   2.381       .  S
O691        C693   1.303       .  A
O691      Zr2860   2.536       .  S
O692        C693   1.282       .  A
O692       Zr704   2.394       .  S
O694        C696   1.296       .  A
O694       Zr697   2.501       .  S
O695        C696   1.287       .  A
O695       Zr703   2.422       .  S
C696        C804   1.503       .  S
Zr697      O2845   2.468   1_455  S
Zr697       O698   2.431       .  S
Zr697       O699   2.434       .  S
Zr697      O2865   2.393   1_455  S
Zr697       O706   2.374       .  S
Zr697       O709   2.370       .  S
Zr697      O2867   2.286   1_455  S
O698       H2878   0.990   1_455  S
O698        H723   0.990       .  S
O699       H2879   0.990   1_455  S
Zr700      O2851   2.521   1_455  S
Zr700       O701   2.435       .  S
Zr700       O702   2.415       .  S
Zr700       O706   2.392       .  S
Zr700      O2865   2.388   1_455  S
Zr700       O708   2.397       .  S
Zr700      O2870   2.284   1_455  S
O701        H717   0.990       .  S
O702       H2876   0.990   1_455  S
O702        H726   0.990   1_455  S
Zr703       O706   2.391       .  S
Zr703       O708   2.391       .  S
Zr703       O709   2.381       .  S
Zr704       O705   2.383       .  S
Zr704       O707   2.380       .  S
Zr704       O710   2.376       .  S
O705      Zr2857   2.389       .  S
O705      Zr2860   2.377       .  S
O705        H713   0.966       .  S
O707      Zr2857   2.386       .  S
O708      Zr2840   2.382   1_455  S
O708        H712   0.965       .  S
O709      Zr2837   2.380   1_455  S
O709        H714   0.965       .  S
O710      Zr2860   2.386       .  S
H715       O2842   0.990       .  S
H716       O2862   0.989       .  S
H718       O2858   0.989       .  S
H719       O2859   0.990       .  S
H720       O2839   0.990   1_455  S
H721       O2838   0.990   1_455  S
H722       O2841   0.990       .  S
H725       O2841   0.990       .  S
N727        C731   1.369       .  A
N727        C728   1.359       .  A
N727       C1012   1.433       .  S
C728        C853   1.481       .  S
C728        C729   1.379       .  A
C729        C730   1.361       .  A
C729        H732   1.082       .  S
C730        C731   1.385       .  A
C730        H733   1.083       .  S
N734        C738   1.364       .  A
N734        C735   1.362       .  A
N734       C1001   1.425       .  S
C735        C736   1.378       .  A
C736        C737   1.370       .  A
C736        H739   1.076       .  S
C737        C738   1.375       .  A
C737        H740   1.073       .  S
C738        C862   1.495       .  S
N741        C745   1.360       .  A
N741        C742   1.356       .  A
N741        C984   1.427       .  S
C742        C743   1.378       .  A
C743        C744   1.370       .  A
C743        H746   1.072       .  S
C744        C745   1.380       .  A
C744        H747   1.083       .  S
C745        C879   1.481       .  S
N748        C752   1.362       .  A
N748        C749   1.361       .  A
N748        C970   1.426       .  S
C749        C876   1.488       .  S
C749        C750   1.383       .  A
C750        C751   1.372       .  A
C750        H753   1.082       .  S
C751        C752   1.381       .  A
C751        H754   1.082       .  S
N755       C1840   1.351       .  A
N755        C759   1.357       .  A
N755        H787   1.035       .  S
N756        C764   1.346   1_554  A
N757       C1842   1.344       .  A
N757        C761   1.346       .  A
N757        H788   1.037       .  S
N758        C766   1.351   1_554  A
C759        C767   1.384       .  A
C759        C775   1.415       .  A
C760       N1835   1.351       .  A
C760        C776   1.409       .  A
C760        C768   1.386       .  A
C761        C769   1.386       .  A
C761        C778   1.402       .  A
C762       N1837   1.344       .  A
C762        C777   1.396       .  A
C762        C770   1.382       .  A
C763        C775   1.412       .  A
C763        C771   1.388       .  A
C764        C778   1.399       .  A
C764        C772   1.371       .  A
C765        C773   1.389       .  A
C765        C776   1.406       .  A
C766        C774   1.383       .  A
C766        C777   1.409       .  A
C767       C1848   1.364       .  A
C767        H779   1.078       .  S
C768       C1847   1.363   1_545  A
C768        H780   1.083       .  S
C769       C1850   1.369       .  A
C769        H781   1.078       .  S
C770       C1849   1.368   1_545  A
C770        H782   1.080       .  S
C771        H783   1.081       .  S
C772        H784   1.078       .  S
C773        H785   1.081       .  S
C774        H786   1.079       .  S
C775       C1015   1.493       .  S
C776        C998   1.478       .  S
C777        C987   1.480       .  S
C778        C973   1.483       .  S
N789        C793   1.357       .  A
N789        C790   1.364       .  A
N789        C956   1.426       .  S
C790        C791   1.379       .  A
C791        C792   1.377       .  A
C791        H794   1.081       .  S
C792        C793   1.377       .  A
C792        H795   1.078       .  S
C793        C882   1.487       .  S
N796        C800   1.353       .  A
N796        C797   1.354       .  A
N796        C945   1.424       .  S
C797        C798   1.379       .  A
C798        C799   1.376       .  A
C798        H801   1.078       .  S
C799        C800   1.374       .  A
C799        H802   1.078       .  S
C800        C856   1.473       .  S
N803        C807   1.371       .  A
N803        C804   1.370       .  A
N803        C931   1.431       .  S
C804        C805   1.381       .  A
C805        C806   1.366       .  A
C805        H808   1.083       .  S
C806        C807   1.383       .  A
C806        H809   1.081       .  S
C807        C873   1.510       .  S
N810        C814   1.369       .  A
N810        C811   1.369       .  A
N810        C914   1.436       .  S
C811        C859   1.501       .  S
C811        C812   1.384       .  A
C812        C813   1.371       .  A
C812        H815   1.083       .  S
C813        C814   1.382       .  A
C813        H816   1.083       .  S
N817        C822   1.349       .  A
N817       C2981   1.349   1_455  A
N817        H849   1.035       .  S
N818        C825   1.347       .  A
N818       C1906   1.344       .  A
N819        C824   1.355       .  A
N819       C2983   1.354   1_455  A
N819        H850   1.033       .  S
N820        C827   1.355       .  A
N820       C1908   1.352       .  A
C821       N2977   1.350       .  A
C821        C829   1.380       .  A
C821        C837   1.403       .  A
C822        C838   1.412       .  A
C822        C830   1.389       .  A
C823       N2979   1.355       .  A
C823        C831   1.384       .  A
C823        C840   1.414       .  A
C824        C839   1.416       .  A
C824        C832   1.387       .  A
C825        C837   1.403       .  A
C825        C833   1.380       .  A
C826       N1898   1.344       .  A
C826        C840   1.405       .  A
C826        C834   1.389       .  A
C827        C835   1.380       .  A
C827        C838   1.414       .  A
C828       N1900   1.352       .  A
C828        C836   1.387       .  A
C828        C839   1.416       .  A
C829       C2990   1.372       .  A
C829        H841   1.081       .  S
C830       C2989   1.372   1_455  A
C830        H842   1.082       .  S
C831       C2992   1.370       .  A
C831        H843   1.083       .  S
C832       C2991   1.368   1_455  A
C832        H844   1.081       .  S
C833       C1914   1.361       .  A
C833        H845   1.080       .  S
C834       C1913   1.364   1_545  A
C834        H846   1.082       .  S
C835       C1916   1.366       .  A
C835        H847   1.076       .  S
C836       C1915   1.367   1_545  A
C836        H848   1.083       .  S
C837        C917   1.482       .  S
C838        C959   1.488       .  S
C839        C928   1.487       .  S
C840        C942   1.478       .  S
O851        C853   1.297       .  A
O851      Zr1943   2.495       .  S
O852        C853   1.278       .  A
O852       Zr889   2.375       .  S
O854        C856   1.290       .  A
O854       Zr866   2.464   1_545  S
O855        C856   1.286       .  A
O855       Zr890   2.419       .  S
O857        C859   1.294       .  A
O857      Zr1946   2.490       .  S
O858        C859   1.291       .  A
O858       Zr889   2.439       .  S
O860        C862   1.295       .  A
O860       Zr863   2.488   1_545  S
O861        C862   1.288       .  A
O861       Zr890   2.429       .  S
Zr863      O1931   2.485       .  S
Zr863       O864   2.425       .  S
Zr863       O865   2.434       .  S
Zr863      O1949   2.384       .  S
Zr863       O870   2.370   1_565  S
Zr863       O893   2.383   1_565  S
Zr863      O1975   2.368       .  S
O864       H1987   0.989       .  S
O865       H1986   0.990   1_565  S
O865        H910   0.990   1_565  S
Zr866      O1937   2.486       .  S
Zr866       O867   2.435       .  S
Zr866       O868   2.426   1_565  S
Zr866       O870   2.389   1_565  S
Zr866      O1949   2.375       .  S
Zr866      O1974   2.390       .  S
Zr866       O896   2.394   1_565  S
O867        H908   0.989       .  S
O867        H911   0.990   1_565  S
O868       H1981   0.990   1_545  S
O869      Zr1943   2.380       .  S
O869      Zr1946   2.377       .  S
O869       Zr889   2.376       .  S
O870       Zr890   2.383       .  S
O870        H897   0.966       .  S
O871        C873   1.298       .  A
O871      Zr1963   2.511       .  S
O872        C873   1.289       .  A
O872       Zr890   2.427       .  S
O874        C876   1.295       .  A
O874       Zr886   2.491       .  S
O875        C876   1.283       .  A
O875       Zr889   2.403       .  S
O877        C879   1.293       .  A
O877      Zr1966   2.478       .  S
O878        C879   1.285       .  A
O878       Zr890   2.414       .  S
O880        C882   1.294       .  A
O880       Zr883   2.482       .  S
O881        C882   1.287       .  A
O881       Zr889   2.432       .  S
Zr883      O1951   2.511       .  S
Zr883       O884   2.430       .  S
Zr883       O885   2.432       .  S
Zr883      O1971   2.371       .  S
Zr883       O892   2.395       .  S
Zr883       O895   2.382       .  S
Zr883      O1973   2.377       .  S
O884       H1984   0.990       .  S
O884        H909   0.990       .  S
O885       H1985   0.990       .  S
Zr886      O1957   2.477       .  S
Zr886       O887   2.434       .  S
Zr886       O888   2.431       .  S
Zr886       O892   2.388       .  S
Zr886      O1971   2.387       .  S
Zr886      O1976   2.390       .  S
Zr886       O894   2.379       .  S
O887        H903   0.990       .  S
O888       H1982   0.990       .  S
O888        H912   0.990       .  S
Zr889       O892   2.379       .  S
Zr889       O894   2.375       .  S
Zr889       O895   2.383       .  S
Zr890       O891   2.384       .  S
Zr890       O893   2.373       .  S
Zr890       O896   2.386       .  S
O891      Zr1963   2.376       .  S
O891      Zr1966   2.388       .  S
O891        H899   0.965       .  S
O893      Zr1963   2.379       .  S
O894      Zr1946   2.391       .  S
O894        H898   0.964       .  S
O895      Zr1943   2.365       .  S
O895        H900   0.965       .  S
O896      Zr1966   2.390       .  S
H901       O1948   0.990       .  S
H902       O1968   0.989   1_565  S
H904       O1964   0.990       .  S
H905       O1965   0.990   1_565  S
H906       O1945   0.990       .  S
H907       O1944   0.990       .  S
C913        C914   1.405       .  A
C913        C918   1.402       .  A
C913        H920   1.082       .  S
C914        C915   1.409       .  A
C915        N922   1.426       .  S
C915        C916   1.399       .  A
C916        C917   1.398       .  A
C916        H921   1.084       .  S
C917        C918   1.398       .  A
C918        N919   1.422       .  S
N919        O923   1.258       .  A
N919        O924   1.256       .  A
N922        O926   1.261       .  A
N922        O925   1.261       .  A
C927        C928   1.405       .  A
C927        C932   1.394       .  A
C927        H934   1.084       .  S
C928        C929   1.407       .  A
C929        N936   1.428       .  S
C929        C930   1.400       .  A
C930        C931   1.405       .  A
C930        H935   1.084       .  S
C931        C932   1.401       .  A
C932        N933   1.427       .  S
N933        O937   1.261       .  A
N933        O938   1.262       .  A
N936        O940   1.262       .  A
N936        O939   1.262       .  A
C941        C942   1.397       .  A
C941        C946   1.396       .  A
C941        H948   1.084       .  S
C942        C943   1.415       .  A
C943        N950   1.429       .  S
C943        C944   1.392       .  A
C944        C945   1.392       .  A
C944        H949   1.084       .  S
C945        C946   1.401       .  A
C946        N947   1.420       .  S
N947        O951   1.262       .  A
N947        O952   1.259       .  A
N950        O954   1.261       .  A
N950        O953   1.262       .  A
C955        C956   1.404       .  A
C955        C960   1.403       .  A
C955        H962   1.083       .  S
C956        C957   1.399       .  A
C957        N964   1.428       .  S
C957        C958   1.386       .  A
C958        C959   1.406       .  A
C958        H963   1.085       .  S
C959        C960   1.413       .  A
C960        N961   1.430       .  S
N961        O965   1.260       .  A
N961        O966   1.262       .  A
N964        O968   1.262       .  A
N964        O967   1.262       .  A
C969        C970   1.394       .  A
C969        C974   1.395       .  A
C969        H976   1.084       .  S
C970        C971   1.404       .  A
C971        N978   1.425       .  S
C971        C972   1.390       .  A
C972        C973   1.391       .  A
C972        H977   1.066       .  S
C973        C974   1.414       .  A
C974        N975   1.426       .  S
N975        O979   1.260       .  A
N975        O980   1.259   1_556  A
N978        O982   1.256       .  A
N978        O981   1.261       .  A
C983        C984   1.386       .  A
C983        C988   1.389       .  A
C983        H990   1.084       .  S
C984        C985   1.407       .  A
C985        N992   1.414       .  S
C985        C986   1.392       .  A
C986        C987   1.390       .  A
C986        H991   1.084       .  S
C987        C988   1.418       .  A
C988        N989   1.423       .  S
N989        O993   1.260       .  A
N989        O994   1.261       .  A
N992        O996   1.259       .  A
N992        O995   1.260       .  A
C997        C998   1.390       .  A
C997       C1002   1.391       .  A
C997       H1004   1.084       .  S
C998        C999   1.416       .  A
C999       N1006   1.426       .  S
C999       C1000   1.390       .  A
C1000      C1001   1.389       .  A
C1000      H1005   1.084       .  S
C1001      C1002   1.409       .  A
C1002      N1003   1.417       .  S
N1003      O1007   1.258       .  A
N1003      O1008   1.258       .  A
N1006      O1010   1.260       .  A
N1006      O1009   1.259       .  A
C1011      C1012   1.411       .  A
C1011      C1016   1.410       .  A
C1011      H1018   1.083       .  S
C1012      C1013   1.395       .  A
C1013      N1020   1.427       .  S
C1013      C1014   1.389       .  A
C1014      C1015   1.405       .  A
C1014      H1019   1.075       .  S
C1015      C1016   1.414       .  A
C1016      N1017   1.445       .  S
N1017      O1021   1.263       .  A
N1017      O1022   1.263       .  A
N1020      O1024   1.260       .  A
N1020      O1023   1.262       .  A
C1025      C1026   1.399       .  A
C1025      C1030   1.394       .  A
C1025      H1032   1.079       .  S
C1026      C1027   1.413       .  A
C1027      N1034   1.421       .  S
C1027      C1028   1.387       .  A
C1028      C1029   1.382       .  A
C1028      H1033   1.084       .  S
C1029      C1030   1.405       .  A
C1030      N1031   1.427       .  S
N1031      O1035   1.262       .  A
N1031      O1036   1.261       .  A
N1034      O1038   1.258       .  A
N1034      O1037   1.261       .  A
C1039      C1040   1.392       .  A
C1039      C1044   1.393       .  A
C1039      H1046   1.084       .  S
C1040      C1041   1.410       .  A
C1041      N1048   1.428       .  S
C1041      C1042   1.394       .  A
C1042      C1043   1.397       .  A
C1042      H1047   1.081       .  S
C1043      C1044   1.415       .  A
C1044      N1045   1.428       .  S
N1045      O1049   1.261       .  A
N1045      O1050   1.260       .  A
N1048      O1052   1.260       .  A
N1048      O1051   1.262       .  A
C1053      C1054   1.406       .  A
C1053      C1058   1.398       .  A
C1053      H1060   1.081       .  S
C1054      C1055   1.399       .  A
C1055      N1062   1.411       .  S
C1055      C1056   1.389       .  A
C1056      C1057   1.395       .  A
C1056      H1061   1.084       .  S
C1057      C1058   1.403       .  A
C1058      N1059   1.426       .  S
N1059      O1063   1.261       .  A
N1059      O1064   1.261       .  A
N1062      O1066   1.257       .  A
N1062      O1065   1.262       .  A
C1067      C1068   1.397       .  A
C1067      C1072   1.398       .  A
C1067      H1074   1.084       .  S
C1068      C1069   1.415       .  A
C1069      N1076   1.429       .  S
C1069      C1070   1.386       .  A
C1070      C1071   1.392       .  A
C1070      H1075   1.084       .  S
C1071      C1072   1.407       .  A
C1072      N1073   1.420       .  S
N1073      O1077   1.259       .  A
N1073      O1078   1.260       .  A
N1076      O1080   1.259       .  A
N1076      O1079   1.259       .  A
O1081      C1083   1.293       .  A
O1081     Zr1633   2.481       .  S
O1082      C1083   1.285       .  A
O1082     Zr1119   2.408       .  S
C1083      C1154   1.490       .  S
O1084      C1086   1.297       .  A
O1084     Zr1096   2.495       .  S
O1085      C1086   1.283       .  A
O1085     Zr1120   2.405       .  S
C1086      C1292   1.492       .  S
O1087      C1089   1.292       .  A
O1087     Zr1636   2.496       .  S
O1088      C1089   1.283       .  A
O1088     Zr1119   2.398       .  S
C1089      C1271   1.493       .  S
O1090      C1092   1.300       .  A
O1090     Zr1093   2.517       .  S
O1091      C1092   1.282       .  A
O1091     Zr1120   2.400       .  S
C1092      C1165   1.506       .  S
Zr1093     O1621   2.487       .  S
Zr1093     O1094   2.413       .  S
Zr1093     O1095   2.435       .  S
Zr1093     O1639   2.399       .  S
Zr1093     O1100   2.384       .  S
Zr1093     O1123   2.381       .  S
Zr1093     O1665   2.393       .  S
O1094      H1677   0.990       .  S
O1095      H1676   0.990       .  S
O1095      H1140   0.990       .  S
Zr1096     O1627   2.506       .  S
Zr1096     O1097   2.420       .  S
Zr1096     O1098   2.435       .  S
Zr1096     O1100   2.396       .  S
Zr1096     O1639   2.388       .  S
Zr1096     O1664   2.388       .  S
Zr1096     O1126   2.390       .  S
O1097      H1138   0.990       .  S
O1097      H1141   0.990       .  S
O1098      H1671   0.990       .  S
O1099     Zr1633   2.399       .  S
O1099     Zr1636   2.385       .  S
O1099     Zr1119   2.374       .  S
O1100     Zr1120   2.374       .  S
O1100      H1127   0.966       .  S
O1101      C1103   1.291       .  A
O1101     Zr1653   2.469       .  S
O1102      C1103   1.283       .  A
O1102     Zr1120   2.409       .  S
C1103      C1282   1.472       .  S
O1104      C1106   1.292       .  A
O1104     Zr1116   2.470   1_554  S
O1105      C1106   1.290       .  A
O1105     Zr1119   2.443       .  S
C1106      C1147   1.488       .  S
O1107      C1109   1.295       .  A
O1107     Zr1656   2.492       .  S
O1108      C1109   1.279       .  A
O1108     Zr1120   2.382       .  S
C1109      C1158   1.482       .  S
O1110      C1112   1.297       .  A
O1110     Zr1113   2.498   1_554  S
O1111      C1112   1.283       .  A
O1111     Zr1119   2.409       .  S
C1112      C1275   1.493       .  S
Zr1113     O1641   2.468       .  S
Zr1113     O1114   2.435       .  S
Zr1113     O1115   2.432       .  S
Zr1113     O1661   2.383       .  S
Zr1113     O1125   2.369   1_556  S
Zr1113     O1663   2.389       .  S
Zr1113     O1122   2.273   1_556  S
O1114      H1674   0.990       .  S
O1114      H1139   0.990       .  S
O1115      H1675   0.990       .  S
Zr1116     O1647   2.503       .  S
Zr1116     O1117   2.435       .  S
Zr1116     O1118   2.427   1_556  S
Zr1116     O1661   2.369       .  S
Zr1116     O1666   2.367       .  S
Zr1116     O1124   2.384   1_556  S
Zr1116     O1122   2.284   1_556  S
O1117      H1133   0.990       .  S
O1118      H1672   0.989   1_554  S
O1118      H1142   0.990       .  S
Zr1119     O1124   2.375       .  S
Zr1119     O1125   2.382       .  S
Zr1119     O1122   2.255       .  S
Zr1120     O1121   2.382       .  S
Zr1120     O1123   2.377       .  S
Zr1120     O1126   2.378       .  S
O1121     Zr1653   2.379       .  S
O1121     Zr1656   2.367       .  S
O1121      H1129   0.965       .  S
O1123     Zr1653   2.388       .  S
O1124     Zr1636   2.384       .  S
O1124      H1128   0.964       .  S
O1125     Zr1633   2.396       .  S
O1125      H1130   0.963       .  S
O1126     Zr1656   2.377       .  S
H1131      O1638   0.990       .  S
H1132      O1658   0.990       .  S
H1134      O1654   0.990       .  S
H1135      O1655   0.990       .  S
H1136      O1635   0.990   1_556  S
H1137      O1634   0.990       .  S
N1143      C1147   1.361       .  A
N1143      C1144   1.364       .  A
N1143      C1611   1.429       .  S
C1144      C1207   1.490       .  S
C1144      C1145   1.379       .  A
C1145      C1146   1.376       .  A
C1145      H1148   1.083       .  S
C1146      C1147   1.379       .  A
C1146      H1149   1.079       .  S
N1150      C1154   1.366       .  A
N1150      C1151   1.363       .  A
N1150      C1597   1.427       .  S
C1151      C1216   1.485       .  S
C1151      C1152   1.381       .  A
C1152      C1153   1.355       .  A
C1152      H1155   1.082       .  S
C1153      C1154   1.381       .  A
C1153      H1156   1.083       .  S
N1157      C1161   1.359       .  A
N1157      C1158   1.357       .  A
N1157      C1580   1.429       .  S
C1158      C1159   1.381       .  A
C1159      C1160   1.364       .  A
C1159      H1162   1.080       .  S
C1160      C1161   1.382       .  A
C1160      H1163   1.083       .  S
C1161      C1230   1.479       .  S
N1164      C1168   1.366       .  A
N1164      C1165   1.365       .  A
N1164      C1569   1.418       .  S
C1165      C1166   1.381       .  A
C1166      C1167   1.368       .  A
C1166      H1169   1.083       .  S
C1167      C1168   1.383       .  A
C1167      H1170   1.081       .  S
C1168      C1233   1.507       .  S
N1171      C1176   1.350       .  A
N1171      C1715   1.346       .  A
N1171      H1203   1.027       .  S
N1172      C3339   1.347   1_455  A
N1172      C1180   1.349       .  A
N1173      C1178   1.353       .  A
N1173      C1717   1.352       .  A
N1173      H1204   1.030       .  S
N1174      C3341   1.346       .  A
N1174      C1182   1.343   1_655  A
C1175      N1711   1.353       .  A
C1175      C1183   1.383       .  A
C1175      C1191   1.413       .  A
C1176      C1192   1.408       .  A
C1176      C1184   1.378       .  A
C1177      N1713   1.346       .  A
C1177      C1185   1.389       .  A
C1177      C1194   1.404       .  A
C1178      C1193   1.415       .  A
C1178      C1186   1.386       .  A
C1179      N3332   1.348       .  A
C1179      C1191   1.409       .  A
C1179      C1187   1.384       .  A
C1180      C1194   1.409       .  A
C1180      C1188   1.384       .  A
C1181      N3334   1.347       .  A
C1181      C1189   1.384       .  A
C1181      C1192   1.408       .  A
C1182      C1190   1.381       .  A
C1182      C1193   1.403       .  A
C1183      C1724   1.367   1_554  A
C1183      H1195   1.081       .  S
C1184      C1723   1.371       .  A
C1184      H1196   1.081       .  S
C1185      C1726   1.373   1_554  A
C1185      H1197   1.081       .  S
C1186      C1725   1.364       .  A
C1186      H1198   1.078       .  S
C1187      C3348   1.370       .  A
C1187      H1199   1.081       .  S
C1188      C3347   1.370   1_455  A
C1188      H1200   1.083       .  S
C1189      C3350   1.369       .  A
C1189      H1201   1.080       .  S
C1190      C3349   1.367   1_455  A
C1190      H1202   1.080       .  S
C1191      C1594   1.486       .  S
C1192      C1566   1.487       .  S
C1193      C1583   1.485       .  S
C1194      C1608   1.477       .  S
O1205      C1207   1.295       .  A
O1205     Zr3377   2.483   1_455  S
O1206      C1207   1.288       .  A
O1206     Zr1243   2.437       .  S
O1208      C1210   1.292       .  A
O1208     Zr1220   2.477       .  S
O1209      C1210   1.292       .  A
O1209     Zr1244   2.443       .  S
C1210      C1354   1.498       .  S
O1211      C1213   1.292       .  A
O1211     Zr3380   2.481   1_455  S
O1212      C1213   1.288       .  A
O1212     Zr1243   2.424       .  S
C1213      C1330   1.491       .  S
O1214      C1216   1.295       .  A
O1214     Zr1217   2.491       .  S
O1215      C1216   1.279       .  A
O1215     Zr1244   2.378       .  S
Zr1217     O3365   2.483       .  S
Zr1217     O1218   2.423       .  S
Zr1217     O1219   2.437       .  S
Zr1217     O3383   2.385       .  S
Zr1217     O1224   2.382       .  S
Zr1217     O1247   2.372       .  S
Zr1217     O3409   2.380       .  S
O1218      H3421   0.990       .  S
O1219      H3420   0.990       .  S
O1219      H1264   0.990       .  S
Zr1220     O3371   2.484       .  S
Zr1220     O3381   2.436       .  S
Zr1220     O1222   2.429       .  S
Zr1220     O1224   2.386       .  S
Zr1220     O3383   2.389       .  S
Zr1220     O3408   2.384       .  S
Zr1220     O1250   2.394       .  S
O1221     Zr3380   2.435       .  S
O1221      H3422   0.990   1_655  S
O1221      H3425   0.990       .  S
O1222      H3415   0.990       .  S
O1223     Zr3377   2.385   1_455  S
O1223     Zr3380   2.389   1_455  S
O1223     Zr1243   2.369       .  S
O1224     Zr1244   2.374       .  S
O1224      H1251   0.966       .  S
O1225      C1227   1.292       .  A
O1225     Zr3397   2.473       .  S
O1226      C1227   1.287       .  A
O1226     Zr1244   2.428       .  S
C1227      C1337   1.485       .  S
O1228      C1230   1.294       .  A
O1228     Zr1240   2.483       .  S
O1229      C1230   1.282       .  A
O1229     Zr1243   2.391       .  S
O1231      C1233   1.302       .  A
O1231     Zr3400   2.525       .  S
O1232      C1233   1.282       .  A
O1232     Zr1244   2.397       .  S
O1234      C1236   1.296       .  A
O1234     Zr1237   2.501       .  S
O1235      C1236   1.286       .  A
O1235     Zr1243   2.415       .  S
C1236      C1344   1.500       .  S
Zr1237     O3385   2.465   1_455  S
Zr1237     O1238   2.426       .  S
Zr1237     O1239   2.433       .  S
Zr1237     O3405   2.390   1_455  S
Zr1237     O1246   2.368       .  S
Zr1237     O1249   2.367       .  S
Zr1237     O3407   2.384   1_455  S
O1238      H3418   0.989   1_455  S
O1238      H1263   0.990       .  S
O1239      H3419   0.990       .  S
Zr1240     O3391   2.523   1_455  S
Zr1240     O1241   2.435       .  S
Zr1240     O1242   2.421       .  S
Zr1240     O1246   2.393       .  S
Zr1240     O3405   2.379   1_455  S
Zr1240     O3410   2.381   1_455  S
Zr1240     O1248   2.401       .  S
O1241      H1257   0.990       .  S
O1242      H3416   0.989       .  S
O1242      H1266   0.990   1_455  S
Zr1243     O1246   2.384       .  S
Zr1243     O1248   2.387       .  S
Zr1243     O1249   2.377       .  S
Zr1244     O1245   2.383       .  S
Zr1244     O1247   2.375       .  S
Zr1244     O1250   2.370       .  S
O1245     Zr3397   2.389       .  S
O1245     Zr3400   2.380       .  S
O1245      H1253   0.966       .  S
O1247     Zr3397   2.382       .  S
O1248     Zr3380   2.382   1_455  S
O1248      H1252   0.966       .  S
O1249     Zr3377   2.381   1_455  S
O1249      H1254   0.965       .  S
O1250     Zr3400   2.379       .  S
H1255      O3382   0.990       .  S
H1256      O3402   0.989       .  S
H1258      O3398   0.990       .  S
H1259      O3399   0.990       .  S
H1260      O3379   0.990   1_455  S
H1261      O3378   0.990       .  S
H1262      O3381   0.990       .  S
H1265      O3381   0.990       .  S
N1267      C1271   1.369       .  A
N1267      C1268   1.358       .  A
N1267      C1552   1.435       .  S
C1268      C1393   1.479       .  S
C1268      C1269   1.379       .  A
C1269      C1270   1.358       .  A
C1269      H1272   1.081       .  S
C1270      C1271   1.385       .  A
C1270      H1273   1.083       .  S
N1274      C1278   1.364       .  A
N1274      C1275   1.362       .  A
N1274      C1541   1.425       .  S
C1275      C1276   1.378       .  A
C1276      C1277   1.370       .  A
C1276      H1279   1.076       .  S
C1277      C1278   1.375       .  A
C1277      H1280   1.073       .  S
C1278      C1402   1.495       .  S
N1281      C1285   1.359       .  A
N1281      C1282   1.354       .  A
N1281      C1524   1.428       .  S
C1282      C1283   1.378       .  A
C1283      C1284   1.371       .  A
C1283      H1286   1.074       .  S
C1284      C1285   1.380       .  A
C1284      H1287   1.083       .  S
C1285      C1419   1.477       .  S
N1288      C1292   1.361       .  A
N1288      C1289   1.365       .  A
N1288      C1510   1.425       .  S
C1289      C1416   1.495       .  S
C1289      C1290   1.385       .  A
C1290      C1291   1.366       .  A
C1290      H1293   1.083       .  S
C1291      C1292   1.380       .  A
C1291      H1294   1.082       .  S
N1295      C1299   1.357   1_545  A
N1295      H1327   1.034       .  S
N1296      C1843   1.346       .  A
N1296      C1304   1.348       .  A
N1297      C1301   1.345   1_545  A
N1297      H1328   1.036       .  S
N1298      C1845   1.346       .  A
N1298      C1306   1.351       .  A
C1299      C1307   1.382       .  A
C1299      C1315   1.415       .  A
C1300      C1316   1.408       .  A
C1300      C1308   1.386       .  A
C1301      C1309   1.384       .  A
C1301      C1318   1.398       .  A
C1302      C1317   1.397       .  A
C1302      C1310   1.382       .  A
C1303      N1836   1.346       .  A
C1303      C1315   1.411       .  A
C1303      C1311   1.387       .  A
C1304      C1318   1.401       .  A
C1304      C1312   1.373       .  A
C1305      N1838   1.347       .  A
C1305      C1313   1.388       .  A
C1305      C1316   1.407       .  A
C1306      C1314   1.383       .  A
C1306      C1317   1.410       .  A
C1307      H1319   1.077       .  S
C1308      H1320   1.083       .  S
C1309      H1321   1.080       .  S
C1310      H1322   1.079       .  S
C1311      C1852   1.364       .  A
C1311      H1323   1.080       .  S
C1312      C1851   1.364       .  A
C1312      H1324   1.078       .  S
C1313      C1854   1.363   1_554  A
C1313      H1325   1.081       .  S
C1314      C1853   1.364       .  A
C1314      H1326   1.079       .  S
C1315      C1555   1.493       .  S
C1316      C1538   1.478       .  S
C1317      C1527   1.484       .  S
C1318      C1513   1.477       .  S
N1329      C1333   1.358       .  A
N1329      C1330   1.365       .  A
N1329      C1496   1.424       .  S
C1330      C1331   1.379       .  A
C1331      C1332   1.372       .  A
C1331      H1334   1.081       .  S
C1332      C1333   1.376       .  A
C1332      H1335   1.075       .  S
C1333      C1422   1.489       .  S
N1336      C1340   1.355       .  A
N1336      C1337   1.356       .  A
N1336      C1485   1.421       .  S
C1337      C1338   1.380       .  A
C1338      C1339   1.377       .  A
C1338      H1341   1.076       .  S
C1339      C1340   1.373       .  A
C1339      H1342   1.078       .  S
C1340      C1396   1.478       .  S
N1343      C1347   1.369       .  A
N1343      C1344   1.368       .  A
N1343      C1471   1.429       .  S
C1344      C1345   1.381       .  A
C1345      C1346   1.366       .  A
C1345      H1348   1.083       .  S
C1346      C1347   1.383       .  A
C1346      H1349   1.081       .  S
C1347      C1413   1.507       .  S
N1350      C1354   1.370       .  A
N1350      C1351   1.367       .  A
N1350      C1454   1.437       .  S
C1351      C1399   1.497       .  S
C1351      C1352   1.383       .  A
C1352      C1353   1.371       .  A
C1352      H1355   1.083       .  S
C1353      C1354   1.383       .  A
C1353      H1356   1.083       .  S
N1357      C1362   1.347       .  A
N1357      C3521   1.348   1_455  A
N1357      H1389   1.035       .  S
N1358      C1365   1.348   1_545  A
N1359      C1364   1.354       .  A
N1359      C3523   1.354   1_455  A
N1359      H1390   1.033       .  S
N1360      C1367   1.352   1_545  A
C1361      N3517   1.348       .  A
C1361      C1369   1.383       .  A
C1361      C1377   1.403       .  A
C1362      C1378   1.407       .  A
C1362      C1370   1.387       .  A
C1363      N3519   1.354       .  A
C1363      C1371   1.385       .  A
C1363      C1380   1.413       .  A
C1364      C1379   1.416       .  A
C1364      C1372   1.388       .  A
C1365      C1377   1.404       .  A
C1365      C1373   1.380       .  A
C1366      C1380   1.405       .  A
C1366      C1374   1.388       .  A
C1367      C1375   1.380       .  A
C1367      C1378   1.410       .  A
C1368      C1376   1.387       .  A
C1368      C1379   1.417       .  A
C1369      C3530   1.368       .  A
C1369      H1381   1.082       .  S
C1370      C3529   1.368   1_455  A
C1370      H1382   1.082       .  S
C1371      C3532   1.370       .  A
C1371      H1383   1.083       .  S
C1372      C3531   1.370   1_455  A
C1372      H1384   1.082       .  S
C1373      H1385   1.081       .  S
C1374      H1386   1.082       .  S
C1375      H1387   1.078       .  S
C1376      H1388   1.083       .  S
C1377      C1457   1.479       .  S
C1378      C1499   1.482       .  S
C1379      C1468   1.486       .  S
C1380      C1482   1.476       .  S
O1391      C1393   1.297       .  A
O1392      C1393   1.276       .  A
O1392     Zr1429   2.366       .  S
O1394      C1396   1.292       .  A
O1394     Zr1406   2.474       .  S
O1395      C1396   1.285       .  A
O1395     Zr1430   2.415       .  S
O1397      C1399   1.293       .  A
O1398      C1399   1.289       .  A
O1398     Zr1429   2.433       .  S
O1400      C1402   1.294       .  A
O1400     Zr1403   2.488       .  S
O1401      C1402   1.288       .  A
O1401     Zr1430   2.431       .  S
Zr1403     O1404   2.428       .  S
Zr1403     O1405   2.434       .  S
Zr1403     O1410   2.377       .  S
Zr1403     O1433   2.386       .  S
O1405      H1450   0.990       .  S
Zr1406     O1407   2.435       .  S
Zr1406     O1408   2.424       .  S
Zr1406     O1410   2.386       .  S
Zr1406     O1436   2.394       .  S
O1407      H1448   0.989       .  S
O1407      H1451   0.990       .  S
O1409     Zr1429   2.373       .  S
O1410     Zr1430   2.383       .  S
O1410      H1437   0.966       .  S
O1411      C1413   1.298       .  A
O1412      C1413   1.287       .  A
O1412     Zr1430   2.421       .  S
O1414      C1416   1.297       .  A
O1414     Zr1426   2.507   1_565  S
O1415      C1416   1.281       .  A
O1415     Zr1429   2.393       .  S
O1417      C1419   1.292       .  A
O1418      C1419   1.285       .  A
O1418     Zr1430   2.417       .  S
O1420      C1422   1.294       .  A
O1420     Zr1423   2.485   1_565  S
O1421      C1422   1.288       .  A
O1421     Zr1429   2.430       .  S
Zr1423     O1424   2.428       .  S
Zr1423     O1425   2.432       .  S
Zr1423     O1432   2.396   1_545  S
Zr1423     O1435   2.383   1_545  S
O1424      H1449   0.990   1_545  S
Zr1426     O1427   2.434       .  S
Zr1426     O1428   2.425       .  S
Zr1426     O1432   2.386   1_545  S
Zr1426     O1434   2.378   1_545  S
O1427      H1443   0.990       .  S
O1428      H1452   0.989       .  S
Zr1429     O1432   2.376       .  S
Zr1429     O1434   2.372       .  S
Zr1429     O1435   2.383       .  S
Zr1430     O1431   2.382       .  S
Zr1430     O1433   2.373       .  S
Zr1430     O1436   2.387       .  S
O1431      H1439   0.965       .  S
O1434      H1438   0.966       .  S
O1435      H1440   0.965       .  S
C1453      C1454   1.407       .  A
C1453      C1458   1.405       .  A
C1453      H1460   1.080       .  S
C1454      C1455   1.406       .  A
C1455      N1462   1.426       .  S
C1455      C1456   1.396       .  A
C1456      C1457   1.398       .  A
C1456      H1461   1.084       .  S
C1457      C1458   1.398       .  A
C1458      N1459   1.427       .  S
N1459      O1463   1.258       .  A
N1459      O1464   1.263       .  A
N1462      O1466   1.261       .  A
N1462      O1465   1.261       .  A
C1467      C1468   1.405       .  A
C1467      C1472   1.393       .  A
C1467      H1474   1.084       .  S
C1468      C1469   1.407       .  A
C1469      N1476   1.428       .  S
C1469      C1470   1.399       .  A
C1470      C1471   1.405       .  A
C1470      H1475   1.084       .  S
C1471      C1472   1.400       .  A
C1472      N1473   1.427       .  S
N1473      O1477   1.261       .  A
N1473      O1478   1.261       .  A
N1476      O1480   1.262       .  A
N1476      O1479   1.262       .  A
C1481      C1482   1.397       .  A
C1481      C1486   1.395       .  A
C1481      H1488   1.084       .  S
C1482      C1483   1.415       .  A
C1483      N1490   1.429       .  S
C1483      C1484   1.390       .  A
C1484      C1485   1.390       .  A
C1484      H1489   1.084       .  S
C1485      C1486   1.402       .  A
C1486      N1487   1.420       .  S
N1487      O1491   1.262       .  A
N1487      O1492   1.259       .  A
N1490      O1494   1.261       .  A
N1490      O1493   1.262       .  A
C1495      C1496   1.401       .  A
C1495      C1500   1.398       .  A
C1495      H1502   1.084       .  S
C1496      C1497   1.401       .  A
C1497      N1504   1.428       .  S
C1497      C1498   1.390       .  A
C1498      C1499   1.406       .  A
C1498      H1503   1.085       .  S
C1499      C1500   1.406       .  A
C1500      N1501   1.424       .  S
N1501      O1505   1.258       .  A
N1501      O1506   1.262       .  A
N1504      O1508   1.262       .  A
N1504      O1507   1.262       .  A
C1509      C1510   1.390       .  A
C1509      C1514   1.400       .  A
C1509      H1516   1.083       .  S
C1510      C1511   1.407       .  A
C1511      N1518   1.422       .  S
C1511      C1512   1.391       .  A
C1512      C1513   1.391       .  A
C1512      H1517   1.083       .  S
C1513      C1514   1.421       .  A
C1514      N1515   1.439       .  S
N1515      O1519   1.263       .  A
N1515      O1520   1.259       .  A
N1518      O1522   1.262       .  A
N1518      O1521   1.261       .  A
C1523      C1524   1.387       .  A
C1523      C1528   1.387       .  A
C1523      H1530   1.084       .  S
C1524      C1525   1.407       .  A
C1525      N1532   1.416       .  S
C1525      C1526   1.394       .  A
C1526      C1527   1.393       .  A
C1526      H1531   1.084       .  S
C1527      C1528   1.418       .  A
C1528      N1529   1.423       .  S
N1529      O1533   1.260       .  A
N1529      O1534   1.261       .  A
N1532      O1536   1.258       .  A
N1532      O1535   1.261       .  A
C1537      C1538   1.389       .  A
C1537      C1542   1.392       .  A
C1537      H1544   1.084       .  S
C1538      C1539   1.415       .  A
C1539      N1546   1.424       .  S
C1539      C1540   1.390       .  A
C1540      C1541   1.388       .  A
C1540      H1545   1.084       .  S
C1541      C1542   1.409       .  A
C1542      N1543   1.417       .  S
N1543      O1547   1.257       .  A
N1543      O1548   1.258       .  A
N1546      O1550   1.260       .  A
N1546      O1549   1.259       .  A
C1551      C1552   1.412       .  A
C1551      C1556   1.410       .  A
C1551      H1558   1.083       .  S
C1552      C1553   1.396       .  A
C1553      N1560   1.427       .  S
C1553      C1554   1.389       .  A
C1554      C1555   1.406       .  A
C1554      H1559   1.074       .  S
C1555      C1556   1.411       .  A
C1556      N1557   1.444       .  S
N1557      O1561   1.262       .  A
N1557      O1562   1.263       .  A
N1560      O1564   1.261       .  A
N1560      O1563   1.262       .  A
C1565      C1566   1.400       .  A
C1565      C1570   1.393       .  A
C1565      H1572   1.070       .  S
C1566      C1567   1.418       .  A
C1567      N1574   1.428       .  S
C1567      C1568   1.391       .  A
C1568      C1569   1.387       .  A
C1568      H1573   1.084       .  S
C1569      C1570   1.405       .  A
C1570      N1571   1.433       .  S
N1571      O1575   1.261       .  A
N1571      O1576   1.262       .  A
N1574      O1578   1.260       .  A
N1574      O1577   1.260       .  A
C1579      C1580   1.390       .  A
C1579      C1584   1.395       .  A
C1579      H1586   1.084       .  S
C1580      C1581   1.407       .  A
C1581      N1588   1.418       .  S
C1581      C1582   1.388       .  A
C1582      C1583   1.387       .  A
C1582      H1587   1.078       .  S
C1583      C1584   1.417       .  A
C1584      N1585   1.422       .  S
N1585      O1589   1.260       .  A
N1585      O1590   1.261       .  A
N1588      O1592   1.261       .  A
N1588      O1591   1.262       .  A
C1593      C1594   1.405       .  A
C1593      C1598   1.400       .  A
C1593      H1600   1.082       .  S
C1594      C1595   1.397       .  A
C1595      N1602   1.411       .  S
C1595      C1596   1.388       .  A
C1596      C1597   1.394       .  A
C1596      H1601   1.084       .  S
C1597      C1598   1.404       .  A
C1598      N1599   1.427       .  S
N1599      O1603   1.261       .  A
N1599      O1604   1.261       .  A
N1602      O1606   1.257       .  A
N1602      O1605   1.262       .  A
C1607      C1608   1.399       .  A
C1607      C1612   1.400       .  A
C1607      H1614   1.084       .  S
C1608      C1609   1.413       .  A
C1609      N1616   1.430       .  S
C1609      C1610   1.385       .  A
C1610      C1611   1.393       .  A
C1610      H1615   1.084       .  S
C1611      C1612   1.408       .  A
C1612      N1613   1.423       .  S
N1613      O1617   1.259       .  A
N1613      O1618   1.260       .  A
N1616      O1620   1.258       .  A
N1616      O1619   1.259       .  A
O1621      C1623   1.294       .  A
O1622      C1623   1.284       .  A
O1622     Zr1659   2.402       .  S
C1623      C1694   1.491       .  S
O1624      C1626   1.292       .  A
O1624     Zr1636   2.476   1_556  S
O1625      C1626   1.286       .  A
O1625     Zr1660   2.419       .  S
C1626      C1832   1.486       .  S
O1627      C1629   1.295       .  A
O1628      C1629   1.282       .  A
O1628     Zr1659   2.398       .  S
C1629      C1811   1.498       .  S
O1630      C1632   1.300       .  A
O1630     Zr1633   2.517   1_556  S
O1631      C1632   1.282       .  A
O1631     Zr1660   2.399       .  S
C1632      C1705   1.505       .  S
Zr1633     O1634   2.411       .  S
Zr1633     O1635   2.437       .  S
Zr1633     O1640   2.382   1_554  S
Zr1633     O1663   2.378   1_554  S
O1635      H1680   0.990       .  S
Zr1636     O1637   2.419       .  S
Zr1636     O1638   2.437       .  S
Zr1636     O1640   2.400   1_554  S
Zr1636     O1666   2.387   1_554  S
O1637      H1678   0.990   1_554  S
O1637      H1681   0.990       .  S
O1639     Zr1659   2.372       .  S
O1640     Zr1660   2.375       .  S
O1640      H1667   0.966       .  S
O1641      C1643   1.291       .  A
O1642      C1643   1.286       .  A
O1642     Zr1660   2.425       .  S
C1643      C1822   1.478       .  S
O1644      C1646   1.290       .  A
O1644     Zr1656   2.466       .  S
O1645      C1646   1.288       .  A
O1645     Zr1659   2.436       .  S
C1646      C1687   1.483       .  S
O1647      C1649   1.298       .  A
O1648      C1649   1.277       .  A
O1648     Zr1660   2.372       .  S
C1649      C1698   1.484       .  S
O1650      C1652   1.295       .  A
O1650     Zr1653   2.492       .  S
O1651      C1652   1.283       .  A
O1651     Zr1659   2.406       .  S
C1652      C1815   1.488       .  S
Zr1653     O1654   2.435       .  S
Zr1653     O1655   2.433       .  S
Zr1653     O1665   2.372       .  S
Zr1653     O1662   2.275       .  S
O1654      H1679   0.990       .  S
Zr1656     O1657   2.435       .  S
Zr1656     O1658   2.428       .  S
Zr1656     O1664   2.389       .  S
Zr1656     O1662   2.282       .  S
O1657      H1673   0.990       .  S
O1658      H1682   0.990       .  S
Zr1659     O1664   2.378       .  S
Zr1659     O1665   2.383       .  S
Zr1659     O1662   2.254       .  S
Zr1660     O1661   2.385       .  S
Zr1660     O1663   2.377       .  S
Zr1660     O1666   2.375       .  S
O1661      H1669   0.965       .  S
O1664      H1668   0.964       .  S
O1665      H1670   0.958       .  S
N1683      C1687   1.359       .  A
N1683      C1684   1.360       .  A
N1683      C2151   1.427       .  S
C1684      C1747   1.486       .  S
C1684      C1685   1.380       .  A
C1685      C1686   1.375       .  A
C1685      H1688   1.082       .  S
C1686      C1687   1.379       .  A
C1686      H1689   1.078       .  S
N1690      C1694   1.365       .  A
N1690      C1691   1.362       .  A
N1690      C2137   1.425       .  S
C1691      C1756   1.484       .  S
C1691      C1692   1.381       .  A
C1692      C1693   1.357       .  A
C1692      H1695   1.082       .  S
C1693      C1694   1.382       .  A
C1693      H1696   1.083       .  S
N1697      C1701   1.352       .  A
N1697      C1698   1.354       .  A
N1697      C2120   1.421       .  S
C1698      C1699   1.382       .  A
C1699      C1700   1.367       .  A
C1699      H1702   1.080       .  S
C1700      C1701   1.382       .  A
C1700      H1703   1.083       .  S
C1701      C1770   1.473       .  S
N1704      C1708   1.366       .  A
N1704      C1705   1.365       .  A
N1704      C2109   1.418       .  S
C1705      C1706   1.381       .  A
C1706      C1707   1.367       .  A
C1706      H1709   1.083       .  S
C1707      C1708   1.384       .  A
C1707      H1710   1.082       .  S
C1708      C1773   1.507       .  S
N1711      C1716   1.356   1_554  A
N1711      H1743   1.032       .  S
N1712      C3879   1.349   1_455  A
N1712      C1720   1.347       .  A
N1713      C1718   1.345   1_554  A
N1713      H1744   1.035       .  S
N1714      C3881   1.346       .  A
N1714      C1722   1.348   1_655  A
C1715      C1723   1.383       .  A
C1715      C1731   1.408       .  A
C1716      C1732   1.412       .  A
C1716      C1724   1.377       .  A
C1717      C1725   1.386       .  A
C1717      C1734   1.415       .  A
C1718      C1733   1.399       .  A
C1718      C1726   1.382       .  A
C1719      N3872   1.350       .  A
C1719      C1731   1.410       .  A
C1719      C1727   1.382       .  A
C1720      C1734   1.410       .  A
C1720      C1728   1.387       .  A
C1721      N3874   1.345       .  A
C1721      C1729   1.387       .  A
C1721      C1732   1.407       .  A
C1722      C1730   1.380       .  A
C1722      C1733   1.405       .  A
C1723      H1735   1.081       .  S
C1724      H1736   1.081       .  S
C1725      H1737   1.081       .  S
C1726      H1738   1.082       .  S
C1727      C3888   1.371       .  A
C1727      H1739   1.081       .  S
C1728      C3887   1.370   1_455  A
C1728      H1740   1.083       .  S
C1729      C3890   1.366       .  A
C1729      H1741   1.080       .  S
C1730      C3889   1.363   1_455  A
C1730      H1742   1.079       .  S
C1731      C2134   1.482       .  S
C1732      C2106   1.489       .  S
C1733      C2123   1.476       .  S
C1734      C2148   1.482       .  S
O1745      C1747   1.293       .  A
O1745     Zr3917   2.482       .  S
O1746      C1747   1.285       .  A
O1746     Zr1783   2.424       .  S
O1748      C1750   1.292       .  A
O1748     Zr1760   2.484       .  S
O1749      C1750   1.289       .  A
O1749     Zr1784   2.429       .  S
C1750      C1894   1.497       .  S
O1751      C1753   1.291       .  A
O1751     Zr3920   2.483   1_455  S
O1752      C1753   1.287       .  A
O1752     Zr1783   2.423       .  S
C1753      C1870   1.491       .  S
O1754      C1756   1.294       .  A
O1754     Zr1757   2.486       .  S
O1755      C1756   1.278       .  A
O1755     Zr1784   2.378       .  S
Zr1757     O3905   2.481       .  S
Zr1757     O1758   2.425       .  S
Zr1757     O1759   2.434       .  S
Zr1757     O1764   2.385       .  S
Zr1757     O1787   2.373       .  S
Zr1757     O3949   2.381       .  S
Zr1757     O3923   2.286       .  S
O1758      H3961   0.990       .  S
O1759      H3960   0.990       .  S
O1759      H1804   0.990       .  S
Zr1760     O3911   2.484       .  S
Zr1760     O3921   2.436       .  S
Zr1760     O1762   2.432       .  S
Zr1760     O1764   2.387       .  S
Zr1760     O3948   2.386       .  S
Zr1760     O3923   2.286       .  S
Zr1760     O1790   2.286       .  S
O1761     Zr3920   2.437       .  S
O1761      H3962   0.990   1_655  S
O1761      H3965   0.990       .  S
O1762      H3955   0.990       .  S
O1763     Zr3917   2.286       .  S
O1763     Zr3920   2.287   1_455  S
O1763     Zr1783   2.259       .  S
O1764     Zr1784   2.381       .  S
O1764      H1791   0.966       .  S
O1765      C1767   1.290       .  A
O1765     Zr3937   2.467       .  S
O1766      C1767   1.285       .  A
O1766     Zr1784   2.421       .  S
C1767      C1877   1.480       .  S
O1768      C1770   1.296       .  A
O1768     Zr1780   2.491       .  S
O1769      C1770   1.276       .  A
O1769     Zr1783   2.366       .  S
O1771      C1773   1.301       .  A
O1771     Zr3940   2.528       .  S
O1772      C1773   1.281       .  A
O1772     Zr1784   2.393       .  S
O1774      C1776   1.296       .  A
O1774     Zr1777   2.499       .  S
O1775      C1776   1.286       .  A
O1775     Zr1783   2.418       .  S
C1776      C1884   1.501       .  S
Zr1777     O3925   2.469   1_455  S
Zr1777     O1778   2.429       .  S
Zr1777     O1779   2.433       .  S
Zr1777     O3945   2.392   1_455  S
Zr1777     O1786   2.376       .  S
Zr1777     O1789   2.374       .  S
Zr1777     O3947   2.391   1_455  S
O1778      H3958   0.988   1_455  S
O1778      H1803   0.990       .  S
O1779      H3959   0.990   1_455  S
Zr1780     O3931   2.530   1_455  S
Zr1780     O1781   2.434       .  S
Zr1780     O1782   2.418   1_455  S
Zr1780     O1786   2.389       .  S
Zr1780     O3945   2.379   1_455  S
Zr1780     O1788   2.404       .  S
Zr1780     O3950   2.284   1_455  S
O1781      H1797   0.990       .  S
O1782      H3956   0.989       .  S
O1782      H1806   0.990       .  S
Zr1783     O1786   2.384       .  S
Zr1783     O1788   2.394       .  S
Zr1783     O1789   2.373       .  S
Zr1784     O1785   2.382       .  S
Zr1784     O1787   2.375       .  S
Zr1784     O1790   2.259       .  S
O1785     Zr3937   2.393       .  S
O1785     Zr3940   2.381       .  S
O1785      H1793   0.966       .  S
O1787     Zr3937   2.389       .  S
O1788     Zr3920   2.386   1_455  S
O1788      H1792   0.965       .  S
O1789     Zr3917   2.379       .  S
O1789      H1794   0.965       .  S
O1790     Zr3940   2.281       .  S
H1795      O3922   0.990   1_455  S
H1796      O3942   0.990       .  S
H1798      O3938   0.989       .  S
H1799      O3939   0.990       .  S
H1800      O3919   0.990       .  S
H1801      O3918   0.990       .  S
H1802      O3921   0.990       .  S
H1805      O3921   0.990       .  S
N1807      C1811   1.369       .  A
N1807      C1808   1.361       .  A
N1807      C2092   1.434       .  S
C1808      C1933   1.482       .  S
C1808      C1809   1.378       .  A
C1809      C1810   1.360       .  A
C1809      H1812   1.081       .  S
C1810      C1811   1.386       .  A
C1810      H1813   1.083       .  S
N1814      C1818   1.363       .  A
N1814      C1815   1.361       .  A
N1814      C2081   1.427       .  S
C1815      C1816   1.377       .  A
C1816      C1817   1.368       .  A
C1816      H1819   1.077       .  S
C1817      C1818   1.375       .  A
C1817      H1820   1.073       .  S
C1818      C1942   1.490       .  S
N1821      C1825   1.361       .  A
N1821      C1822   1.357       .  A
N1821      C2064   1.429       .  S
C1822      C1823   1.378       .  A
C1823      C1824   1.372       .  A
C1823      H1826   1.075       .  S
C1824      C1825   1.380       .  A
C1824      H1827   1.083       .  S
C1825      C1959   1.483       .  S
N1828      C1832   1.361       .  A
N1828      C1829   1.364       .  A
N1828      C2050   1.428       .  S
C1829      C1956   1.493       .  S
C1829      C1830   1.385       .  A
C1830      C1831   1.371       .  A
C1830      H1833   1.082       .  S
C1831      C1832   1.377       .  A
C1831      H1834   1.081       .  S
N1835      C1839   1.356   1_545  A
N1835      H1867   1.035       .  S
N1836      C1844   1.348   1_554  A
N1837      C1841   1.344   1_545  A
N1837      H1868   1.036       .  S
N1838      C1846   1.351   1_554  A
C1839      C1847   1.384       .  A
C1839      C1855   1.414       .  A
C1840      C1856   1.410       .  A
C1840      C1848   1.386       .  A
C1841      C1849   1.382       .  A
C1841      C1858   1.397       .  A
C1842      C1857   1.396       .  A
C1842      C1850   1.382       .  A
C1843      C1855   1.412       .  A
C1843      C1851   1.387       .  A
C1844      C1858   1.400       .  A
C1844      C1852   1.371   1_556  A
C1845      C1853   1.388       .  A
C1845      C1856   1.407       .  A
C1846      C1854   1.384       .  A
C1846      C1857   1.409       .  A
C1847      H1859   1.077       .  S
C1848      H1860   1.083       .  S
C1849      H1861   1.078       .  S
C1850      H1862   1.081       .  S
C1851      H1863   1.080       .  S
C1852      H1864   1.077   1_554  S
C1853      H1865   1.081       .  S
C1854      H1866   1.079       .  S
C1855      C2095   1.492       .  S
C1856      C2078   1.478       .  S
C1857      C2067   1.481       .  S
C1858      C2053   1.480       .  S
N1869      C1873   1.359       .  A
N1869      C1870   1.366       .  A
N1869      C2036   1.427       .  S
C1870      C1871   1.379       .  A
C1871      C1872   1.372       .  A
C1871      H1874   1.081       .  S
C1872      C1873   1.377       .  A
C1872      H1875   1.077       .  S
C1873      C1962   1.487       .  S
N1876      C1880   1.354       .  A
N1876      C1877   1.355       .  A
N1876      C2025   1.422       .  S
C1877      C1878   1.378       .  A
C1878      C1879   1.375       .  A
C1878      H1881   1.076       .  S
C1879      C1880   1.375       .  A
C1879      H1882   1.079       .  S
C1880      C1936   1.475       .  S
N1883      C1887   1.369       .  A
N1883      C1884   1.368       .  A
N1883      C2011   1.429       .  S
C1884      C1885   1.381       .  A
C1885      C1886   1.366       .  A
C1885      H1888   1.083       .  S
C1886      C1887   1.383       .  A
C1886      H1889   1.081       .  S
C1887      C1953   1.506       .  S
N1890      C1894   1.368       .  A
N1890      C1891   1.367       .  A
N1890      C1994   1.435       .  S
C1891      C1939   1.496       .  S
C1891      C1892   1.383       .  A
C1892      C1893   1.370       .  A
C1892      H1895   1.083       .  S
C1893      C1894   1.383       .  A
C1893      H1896   1.083       .  S
N1897      C1902   1.349       .  A
N1897      C4061   1.349   1_455  A
N1897      H1929   1.034       .  S
N1898      C1905   1.347   1_545  A
N1899      C1904   1.354       .  A
N1899      C4063   1.355   1_455  A
N1899      H1930   1.033       .  S
N1900      C1907   1.355   1_545  A
C1901      N4057   1.348       .  A
C1901      C1909   1.382       .  A
C1901      C1917   1.403       .  A
C1902      C1918   1.411       .  A
C1902      C1910   1.388       .  A
C1903      N4059   1.355       .  A
C1903      C1911   1.384       .  A
C1903      C1920   1.413       .  A
C1904      C1919   1.416       .  A
C1904      C1912   1.388       .  A
C1905      C1917   1.404       .  A
C1905      C1913   1.381       .  A
C1906      C1920   1.404       .  A
C1906      C1914   1.389       .  A
C1907      C1915   1.381       .  A
C1907      C1918   1.413       .  A
C1908      C1916   1.386       .  A
C1908      C1919   1.416       .  A
C1909      C4070   1.370       .  A
C1909      H1921   1.082       .  S
C1910      C4069   1.370   1_455  A
C1910      H1922   1.082       .  S
C1911      C4072   1.369       .  A
C1911      H1923   1.083       .  S
C1912      C4071   1.369   1_455  A
C1912      H1924   1.082       .  S
C1913      H1925   1.081       .  S
C1914      H1926   1.082       .  S
C1915      H1927   1.077       .  S
C1916      H1928   1.083       .  S
C1917      C1997   1.477       .  S
C1918      C2039   1.486       .  S
C1919      C2008   1.486       .  S
C1920      C2022   1.476       .  S
O1931      C1933   1.295       .  A
O1932      C1933   1.280       .  A
O1932     Zr1969   2.386       .  S
O1934      C1936   1.292       .  A
O1934     Zr1946   2.474       .  S
O1935      C1936   1.284       .  A
O1935     Zr1970   2.409       .  S
O1937      C1939   1.293       .  A
O1938      C1939   1.288       .  A
O1938     Zr1969   2.430       .  S
O1940      C1942   1.294       .  A
O1940     Zr1943   2.485       .  S
O1941      C1942   1.287       .  A
O1941     Zr1970   2.423       .  S
Zr1943     O1944   2.428       .  S
Zr1943     O1945   2.437       .  S
Zr1943     O1950   2.377       .  S
Zr1943     O1973   2.389       .  S
O1945      H1990   0.990       .  S
Zr1946     O1947   2.433       .  S
Zr1946     O1948   2.422       .  S
Zr1946     O1950   2.381       .  S
Zr1946     O1976   2.395       .  S
O1947      H1988   0.989       .  S
O1947      H1991   0.989       .  S
O1949     Zr1969   2.373       .  S
O1950     Zr1970   2.384       .  S
O1950      H1977   0.966       .  S
O1951      C1953   1.298       .  A
O1952      C1953   1.286       .  A
O1952     Zr1970   2.418       .  S
O1954      C1956   1.296       .  A
O1954     Zr1966   2.499   1_565  S
O1955      C1956   1.284       .  A
O1955     Zr1969   2.406       .  S
O1957      C1959   1.293       .  A
O1958      C1959   1.286       .  A
O1958     Zr1970   2.421       .  S
O1960      C1962   1.294       .  A
O1960     Zr1963   2.489   1_565  S
O1961      C1962   1.286       .  A
O1961     Zr1969   2.422       .  S
Zr1963     O1964   2.432       .  S
Zr1963     O1965   2.434       .  S
Zr1963     O1972   2.394   1_545  S
Zr1963     O1975   2.381   1_545  S
O1964      H1989   0.990   1_545  S
Zr1966     O1967   2.434       .  S
Zr1966     O1968   2.425       .  S
Zr1966     O1972   2.386   1_545  S
Zr1966     O1974   2.383   1_545  S
O1967      H1983   0.990   1_545  S
O1968      H1992   0.990       .  S
Zr1969     O1972   2.377       .  S
Zr1969     O1974   2.376       .  S
Zr1969     O1975   2.384       .  S
Zr1970     O1971   2.379       .  S
Zr1970     O1973   2.376       .  S
Zr1970     O1976   2.383       .  S
O1971      H1979   0.965       .  S
O1974      H1978   0.966       .  S
O1975      H1980   0.965       .  S
C1993      C1994   1.406       .  A
C1993      C1998   1.404       .  A
C1993      H2000   1.080       .  S
C1994      C1995   1.406       .  A
C1995      N2002   1.426       .  S
C1995      C1996   1.396       .  A
C1996      C1997   1.398       .  A
C1996      H2001   1.084       .  S
C1997      C1998   1.398       .  A
C1998      N1999   1.426       .  S
N1999      O2003   1.258       .  A
N1999      O2004   1.262       .  A
N2002      O2006   1.261       .  A
N2002      O2005   1.261       .  A
C2007      C2008   1.405       .  A
C2007      C2012   1.394       .  A
C2007      H2014   1.083       .  S
C2008      C2009   1.407       .  A
C2009      N2016   1.427       .  S
C2009      C2010   1.398       .  A
C2010      C2011   1.405       .  A
C2010      H2015   1.084       .  S
C2011      C2012   1.400       .  A
C2012      N2013   1.427       .  S
N2013      O2017   1.261       .  A
N2013      O2018   1.261       .  A
N2016      O2020   1.262       .  A
N2016      O2019   1.262       .  A
C2021      C2022   1.396       .  A
C2021      C2026   1.395       .  A
C2021      H2028   1.084       .  S
C2022      C2023   1.415       .  A
C2023      N2030   1.428       .  S
C2023      C2024   1.390       .  A
C2024      C2025   1.389       .  A
C2024      H2029   1.084       .  S
C2025      C2026   1.402       .  A
C2026      N2027   1.418       .  S
N2027      O2031   1.262       .  A
N2027      O2032   1.258       .  A
N2030      O2034   1.260       .  A
N2030      O2033   1.262       .  A
C2035      C2036   1.404       .  A
C2035      C2040   1.403       .  A
C2035      H2042   1.083       .  S
C2036      C2037   1.400       .  A
C2037      N2044   1.428       .  S
C2037      C2038   1.389       .  A
C2038      C2039   1.406       .  A
C2038      H2043   1.085       .  S
C2039      C2040   1.411       .  A
C2040      N2041   1.430       .  S
N2041      O2045   1.260       .  A
N2041      O2046   1.262       .  A
N2044      O2048   1.262       .  A
N2044      O2047   1.262       .  A
C2049      C2050   1.392       .  A
C2049      C2054   1.401       .  A
C2049      H2056   1.083       .  S
C2050      C2051   1.405       .  A
C2051      N2058   1.419       .  S
C2051      C2052   1.393       .  A
C2052      C2053   1.391       .  A
C2052      H2057   1.083       .  S
C2053      C2054   1.422       .  A
C2054      N2055   1.439       .  S
N2055      O2059   1.263       .  A
N2055      O2060   1.259       .  A
N2058      O2062   1.261       .  A
N2058      O2061   1.261       .  A
C2063      C2064   1.389       .  A
C2063      C2068   1.388       .  A
C2063      H2070   1.084       .  S
C2064      C2065   1.407       .  A
C2065      N2072   1.415       .  S
C2065      C2066   1.393       .  A
C2066      C2067   1.392       .  A
C2066      H2071   1.084       .  S
C2067      C2068   1.418       .  A
C2068      N2069   1.424       .  S
N2069      O2073   1.260       .  A
N2069      O2074   1.262       .  A
N2072      O2076   1.257       .  A
N2072      O2075   1.261       .  A
C2077      C2078   1.389       .  A
C2077      C2082   1.391       .  A
C2077      H2084   1.084       .  S
C2078      C2079   1.415       .  A
C2079      N2086   1.425       .  S
C2079      C2080   1.391       .  A
C2080      C2081   1.389       .  A
C2080      H2085   1.084       .  S
C2081      C2082   1.410       .  A
C2082      N2083   1.417       .  S
N2083      O2087   1.258       .  A
N2083      O2088   1.259       .  A
N2086      O2090   1.259       .  A
N2086      O2089   1.260       .  A
C2091      C2092   1.411       .  A
C2091      C2096   1.409       .  A
C2091      H2098   1.083       .  S
C2092      C2093   1.396       .  A
C2093      N2100   1.428       .  S
C2093      C2094   1.389       .  A
C2094      C2095   1.406       .  A
C2094      H2099   1.076       .  S
C2095      C2096   1.413       .  A
C2096      N2097   1.445       .  S
N2097      O2101   1.263       .  A
N2097      O2102   1.263       .  A
N2100      O2104   1.261       .  A
N2100      O2103   1.262       .  A
C2105      C2106   1.400       .  A
C2105      C2110   1.393       .  A
C2105      H2112   1.071       .  S
C2106      C2107   1.417       .  A
C2107      N2114   1.428       .  S
C2107      C2108   1.392       .  A
C2108      C2109   1.389       .  A
C2108      H2113   1.084       .  S
C2109      C2110   1.405       .  A
C2110      N2111   1.432       .  S
N2111      O2115   1.261       .  A
N2111      O2116   1.262       .  A
N2114      O2118   1.259       .  A
N2114      O2117   1.260       .  A
C2119      C2120   1.386       .  A
C2119      C2124   1.388       .  A
C2119      H2126   1.084       .  S
C2120      C2121   1.410       .  A
C2121      N2128   1.427       .  S
C2121      C2122   1.393       .  A
C2122      C2123   1.395       .  A
C2122      H2127   1.081       .  S
C2123      C2124   1.416       .  A
C2124      N2125   1.426       .  S
N2125      O2129   1.260       .  A
N2125      O2130   1.261       .  A
N2128      O2132   1.259       .  A
N2128      O2131   1.261       .  A
C2133      C2134   1.404       .  A
C2133      C2138   1.397       .  A
C2133      H2140   1.081       .  S
C2134      C2135   1.396       .  A
C2135      N2142   1.410       .  S
C2135      C2136   1.387       .  A
C2136      C2137   1.395       .  A
C2136      H2141   1.084       .  S
C2137      C2138   1.403       .  A
C2138      N2139   1.426       .  S
N2139      O2143   1.261       .  A
N2139      O2144   1.261       .  A
N2142      O2146   1.257       .  A
N2142      O2145   1.262       .  A
C2147      C2148   1.397       .  A
C2147      C2152   1.400       .  A
C2147      H2154   1.084       .  S
C2148      C2149   1.412       .  A
C2149      N2156   1.424       .  S
C2149      C2150   1.385       .  A
C2150      C2151   1.390       .  A
C2150      H2155   1.084       .  S
C2151      C2152   1.407       .  A
C2152      N2153   1.420       .  S
N2153      O2157   1.259       .  A
N2153      O2158   1.260       .  A
N2156      O2160   1.259       .  A
N2156      O2159   1.260       .  A
O2161      C2163   1.292       .  A
O2161     Zr2713   2.480   1_554  S
O2162      C2163   1.287       .  A
O2162     Zr2199   2.416       .  S
C2163      C2234   1.492       .  S
O2164      C2166   1.295       .  A
O2164     Zr2176   2.487       .  S
O2165      C2166   1.286       .  A
O2165     Zr2200   2.419       .  S
C2166      C2372   1.493       .  S
O2167      C2169   1.293       .  A
O2167     Zr2716   2.498       .  S
O2168      C2169   1.284       .  A
O2168     Zr2199   2.405       .  S
C2169      C2351   1.496       .  S
O2170      C2172   1.300       .  A
O2170     Zr2173   2.513       .  S
O2171      C2172   1.280       .  A
O2171     Zr2200   2.389       .  S
C2172      C2245   1.500       .  S
Zr2173     O2701   2.484       .  S
Zr2173     O2174   2.426       .  S
Zr2173     O2175   2.434       .  S
Zr2173     O2719   2.399       .  S
Zr2173     O2180   2.387       .  S
Zr2173     O2203   2.378       .  S
Zr2173     O2745   2.393       .  S
O2174      H2757   0.990       .  S
O2175      H2756   0.990       .  S
O2175      H2220   0.990       .  S
Zr2176     O2707   2.496       .  S
Zr2176     O2177   2.417       .  S
Zr2176     O2178   2.433       .  S
Zr2176     O2180   2.395       .  S
Zr2176     O2719   2.385       .  S
Zr2176     O2744   2.388       .  S
Zr2176     O2206   2.386       .  S
O2177      H2218   0.989       .  S
O2177      H2221   0.990       .  S
O2178      H2751   0.990       .  S
O2179     Zr2713   2.400   1_554  S
O2179     Zr2716   2.384       .  S
O2179     Zr2199   2.373       .  S
O2180     Zr2200   2.376       .  S
O2180      H2207   0.966       .  S
O2181      C2183   1.292       .  A
O2181     Zr2733   2.473       .  S
O2182      C2183   1.285       .  A
O2182     Zr2200   2.417       .  S
C2183      C2362   1.478       .  S
O2184      C2186   1.291       .  A
O2184     Zr2196   2.470   1_554  S
O2185      C2186   1.290       .  A
O2185     Zr2199   2.445       .  S
C2186      C2227   1.488       .  S
O2187      C2189   1.296       .  A
O2187     Zr2736   2.497       .  S
O2188      C2189   1.278       .  A
O2188     Zr2200   2.378       .  S
C2189      C2238   1.485       .  S
O2190      C2192   1.297       .  A
O2190     Zr2193   2.502   1_554  S
O2191      C2192   1.282       .  A
O2191     Zr2199   2.403       .  S
C2192      C2355   1.490       .  S
Zr2193     O2721   2.475       .  S
Zr2193     O2194   2.437       .  S
Zr2193     O2195   2.433       .  S
Zr2193     O2741   2.384       .  S
Zr2193     O2205   2.371   1_556  S
Zr2193     O2743   2.388       .  S
Zr2193     O2202   2.276   1_556  S
O2194      H2754   0.990   1_556  S
O2194      H2219   0.990       .  S
O2195      H2755   0.990       .  S
Zr2196     O2727   2.504       .  S
Zr2196     O2197   2.435       .  S
Zr2196     O2198   2.428       .  S
Zr2196     O2741   2.370       .  S
Zr2196     O2746   2.363       .  S
Zr2196     O2204   2.383   1_556  S
Zr2196     O2202   2.288   1_556  S
O2197      H2213   0.990       .  S
O2198      H2752   0.989       .  S
O2198      H2222   0.990   1_556  S
Zr2199     O2204   2.372       .  S
Zr2199     O2205   2.381       .  S
Zr2199     O2202   2.260       .  S
Zr2200     O2201   2.385       .  S
Zr2200     O2203   2.377       .  S
Zr2200     O2206   2.368       .  S
O2201     Zr2733   2.384       .  S
O2201     Zr2736   2.368       .  S
O2201      H2209   0.966       .  S
O2203     Zr2733   2.386       .  S
O2204     Zr2716   2.382       .  S
O2204      H2208   0.964       .  S
O2205     Zr2713   2.394   1_554  S
O2205      H2210   0.969       .  S
O2206     Zr2736   2.368       .  S
H2211      O2718   0.990   1_556  S
H2212      O2738   0.990       .  S
H2214      O2734   0.990       .  S
H2215      O2735   0.989       .  S
H2216      O2715   0.990       .  S
H2217      O2714   0.990   1_556  S
N2223      C2227   1.360       .  A
N2223      C2224   1.362       .  A
N2223      C2691   1.426       .  S
C2224      C2287   1.490       .  S
C2224      C2225   1.380       .  A
C2225      C2226   1.377       .  A
C2225      H2228   1.082       .  S
C2226      C2227   1.379       .  A
C2226      H2229   1.078       .  S
N2230      C2234   1.368       .  A
N2230      C2231   1.364       .  A
N2230      C2677   1.428       .  S
C2231      C2296   1.486       .  S
C2231      C2232   1.381       .  A
C2232      C2233   1.357       .  A
C2232      H2235   1.083       .  S
C2233      C2234   1.381       .  A
C2233      H2236   1.083       .  S
N2237      C2241   1.357       .  A
N2237      C2238   1.357       .  A
N2237      C2660   1.426       .  S
C2238      C2239   1.381       .  A
C2239      C2240   1.365       .  A
C2239      H2242   1.080       .  S
C2240      C2241   1.382       .  A
C2240      H2243   1.083       .  S
C2241      C2310   1.476       .  S
N2244      C2248   1.362       .  A
N2244      C2245   1.361       .  A
N2244      C2649   1.414       .  S
C2245      C2246   1.381       .  A
C2246      C2247   1.367       .  A
C2246      H2249   1.083       .  S
C2247      C2248   1.383       .  A
C2247      H2250   1.081       .  S
C2248      C2313   1.504       .  S
N2251      C2256   1.351       .  A
N2251      C2795   1.354       .  A
N2251      H2283   1.031       .  S
N2252      C2260   1.348       .  A
N2253      C2258   1.348       .  A
N2253      C2797   1.347       .  A
N2253      H2284   1.027       .  S
N2254      C2262   1.350       .  A
C2255      N2791   1.354       .  A
C2255      C2263   1.384       .  A
C2255      C2271   1.412       .  A
C2256      C2272   1.411       .  A
C2256      C2264   1.384       .  A
C2257      N2793   1.345       .  A
C2257      C2265   1.388       .  A
C2257      C2274   1.403       .  A
C2258      C2273   1.409       .  A
C2258      C2266   1.383       .  A
C2259      C2271   1.409       .  A
C2259      C2267   1.385       .  A
C2260      C2274   1.406       .  A
C2260      C2268   1.383       .  A
C2261      C2269   1.385       .  A
C2261      C2272   1.412       .  A
C2262      C2270   1.383       .  A
C2262      C2273   1.412       .  A
C2263      C2804   1.365   1_554  A
C2263      H2275   1.082       .  S
C2264      C2803   1.365       .  A
C2264      H2276   1.082       .  S
C2265      C2806   1.373   1_554  A
C2265      H2277   1.081       .  S
C2266      C2805   1.372       .  A
C2266      H2278   1.082       .  S
C2267      H2279   1.080       .  S
C2268      H2280   1.083       .  S
C2269      H2281   1.082       .  S
C2270      H2282   1.078       .  S
C2271      C2674   1.490       .  S
C2272      C2646   1.480       .  S
C2273      C2663   1.483       .  S
C2274      C2688   1.475       .  S
O2285      C2287   1.293       .  A
O2286      C2287   1.287       .  A
O2286     Zr2323   2.436       .  S
O2288      C2290   1.292       .  A
O2288     Zr2300   2.477       .  S
O2289      C2290   1.290       .  A
O2289     Zr2324   2.437       .  S
C2290      C2434   1.496       .  S
O2291      C2293   1.290       .  A
O2292      C2293   1.289       .  A
O2292     Zr2323   2.430       .  S
C2293      C2410   1.491       .  S
O2294      C2296   1.293       .  A
O2294     Zr2297   2.485       .  S
O2295      C2296   1.279       .  A
O2295     Zr2324   2.382       .  S
Zr2297     O2298   2.421       .  S
Zr2297     O2299   2.435       .  S
Zr2297     O2304   2.380       .  S
Zr2297     O2327   2.375       .  S
O2299      H2344   0.990   1_655  S
Zr2300     O2302   2.429       .  S
Zr2300     O2304   2.390       .  S
Zr2300     O2330   2.288       .  S
O2303     Zr2323   2.257       .  S
O2304     Zr2324   2.372       .  S
O2304      H2331   0.966       .  S
O2305      C2307   1.290       .  A
O2306      C2307   1.287       .  A
O2306     Zr2324   2.431       .  S
C2307      C2417   1.481       .  S
O2308      C2310   1.296       .  A
O2308     Zr2320   2.488       .  S
O2309      C2310   1.279       .  A
O2309     Zr2323   2.379       .  S
O2311      C2313   1.301       .  A
O2312      C2313   1.280       .  A
O2312     Zr2324   2.388       .  S
O2314      C2316   1.296       .  A
O2314     Zr2317   2.500       .  S
O2315      C2316   1.286       .  A
O2315     Zr2323   2.418       .  S
C2316      C2424   1.502       .  S
Zr2317     O2318   2.423       .  S
Zr2317     O2319   2.433       .  S
Zr2317     O2326   2.374       .  S
Zr2317     O2329   2.371       .  S
O2318      H2343   0.990       .  S
Zr2320     O2321   2.434       .  S
Zr2320     O2322   2.416       .  S
Zr2320     O2326   2.397       .  S
Zr2320     O2328   2.402       .  S
O2321      H2337   0.990       .  S
O2322      H2346   0.990       .  S
Zr2323     O2326   2.384       .  S
Zr2323     O2328   2.389       .  S
Zr2323     O2329   2.379       .  S
Zr2324     O2325   2.383       .  S
Zr2324     O2327   2.372       .  S
Zr2324     O2330   2.262       .  S
O2325      H2333   0.966       .  S
O2328      H2332   0.965       .  S
O2329      H2334   0.965       .  S
N2347      C2351   1.369       .  A
N2347      C2348   1.358       .  A
N2347      C2632   1.433       .  S
C2348      C2473   1.483       .  S
C2348      C2349   1.380       .  A
C2349      C2350   1.362       .  A
C2349      H2352   1.081       .  S
C2350      C2351   1.385       .  A
C2350      H2353   1.083       .  S
N2354      C2358   1.364       .  A
N2354      C2355   1.361       .  A
N2354      C2621   1.426       .  S
C2355      C2356   1.377       .  A
C2356      C2357   1.369       .  A
C2356      H2359   1.076       .  S
C2357      C2358   1.375       .  A
C2357      H2360   1.074       .  S
C2358      C2482   1.492       .  S
N2361      C2365   1.362       .  A
N2361      C2362   1.356       .  A
N2361      C2604   1.428       .  S
C2362      C2363   1.378       .  A
C2363      C2364   1.371       .  A
C2363      H2366   1.073       .  S
C2364      C2365   1.380       .  A
C2364      H2367   1.083       .  S
C2365      C2499   1.484       .  S
N2368      C2372   1.362       .  A
N2368      C2369   1.360       .  A
N2368      C2590   1.425       .  S
C2369      C2496   1.488       .  S
C2369      C2370   1.382       .  A
C2370      C2371   1.373       .  A
C2370      H2373   1.082       .  S
C2371      C2372   1.380       .  A
C2371      H2374   1.082       .  S
N2375      C3460   1.350       .  A
N2375      C2379   1.355       .  A
N2375      H2407   1.033       .  S
N2376      C2923   1.347       .  A
N2376      C2384   1.348       .  A
N2377      C3462   1.344       .  A
N2377      C2381   1.347       .  A
N2377      H2408   1.036       .  S
N2378      C2925   1.345       .  A
N2378      C2386   1.350       .  A
C2379      C2387   1.385       .  A
C2379      C2395   1.413       .  A
C2380      N3455   1.350       .  A
C2380      C2396   1.410       .  A
C2380      C2388   1.387       .  A
C2381      C2389   1.387       .  A
C2381      C2398   1.404       .  A
C2382      N3457   1.345       .  A
C2382      C2397   1.397       .  A
C2382      C2390   1.381       .  A
C2383      N2916   1.347       .  A
C2383      C2395   1.413       .  A
C2383      C2391   1.386       .  A
C2384      C2398   1.404       .  A
C2384      C2392   1.374       .  A
C2385      N2918   1.345       .  A
C2385      C2393   1.389       .  A
C2385      C2396   1.407       .  A
C2386      C2394   1.383       .  A
C2386      C2397   1.409       .  A
C2387      C3468   1.362       .  A
C2387      H2399   1.077       .  S
C2388      C3467   1.364   1_545  A
C2388      H2400   1.083       .  S
C2389      C3470   1.369       .  A
C2389      H2401   1.078       .  S
C2390      C3469   1.368   1_545  A
C2390      H2402   1.080       .  S
C2391      C2932   1.369   1_554  A
C2391      H2403   1.082       .  S
C2392      C2931   1.369       .  A
C2392      H2404   1.079       .  S
C2393      C2934   1.365   1_554  A
C2393      H2405   1.081       .  S
C2394      C2933   1.365       .  A
C2394      H2406   1.077       .  S
C2395      C2635   1.490       .  S
C2396      C2618   1.478       .  S
C2397      C2607   1.483       .  S
C2398      C2593   1.487       .  S
N2409      C2413   1.359       .  A
N2409      C2410   1.368       .  A
N2409      C2576   1.431       .  S
C2410      C2411   1.378       .  A
C2411      C2412   1.371       .  A
C2411      H2414   1.080       .  S
C2412      C2413   1.377       .  A
C2412      H2415   1.077       .  S
C2413      C2502   1.485       .  S
N2416      C2420   1.353       .  A
N2416      C2417   1.355       .  A
N2416      C2565   1.421       .  S
C2417      C2418   1.379       .  A
C2418      C2419   1.378       .  A
C2418      H2421   1.078       .  S
C2419      C2420   1.374       .  A
C2419      H2422   1.078       .  S
C2420      C2476   1.476       .  S
N2423      C2427   1.368       .  A
N2423      C2424   1.369       .  A
N2423      C2551   1.429       .  S
C2424      C2425   1.382       .  A
C2425      C2426   1.367       .  A
C2425      H2428   1.083       .  S
C2426      C2427   1.383       .  A
C2426      H2429   1.081       .  S
C2427      C2493   1.506       .  S
N2430      C2434   1.368       .  A
N2430      C2431   1.370       .  A
N2430      C2534   1.437       .  S
C2431      C2479   1.498       .  S
C2431      C2432   1.384       .  A
C2432      C2433   1.370       .  A
C2432      H2435   1.083       .  S
C2433      C2434   1.382       .  A
C2433      H2436   1.083       .  S
N2437      C2442   1.349       .  A
N2437      H2469   1.035       .  S
N2438      C2445   1.346       .  A
N2438      C3526   1.344       .  A
N2439      C2444   1.358       .  A
N2439      H2470   1.034       .  S
N2440      C2447   1.355       .  A
N2440      C3528   1.352       .  A
C2441      C2449   1.379   1_655  A
C2441      C2457   1.404       .  A
C2442      C2458   1.410       .  A
C2442      C2450   1.387       .  A
C2443      C2451   1.385       .  A
C2443      C2460   1.415       .  A
C2444      C2459   1.420       .  A
C2444      C2452   1.387       .  A
C2445      C2457   1.402       .  A
C2445      C2453   1.381       .  A
C2446      N3518   1.343       .  A
C2446      C2460   1.406       .  A
C2446      C2454   1.390       .  A
C2447      C2455   1.380       .  A
C2447      C2458   1.413       .  A
C2448      N3520   1.349       .  A
C2448      C2456   1.389       .  A
C2448      C2459   1.413       .  A
C2449      H2461   1.079   1_455  S
C2450      H2462   1.082       .  S
C2451      H2463   1.083       .  S
C2452      H2464   1.083       .  S
C2453      C3534   1.360       .  A
C2453      H2465   1.081       .  S
C2454      C3533   1.366   1_545  A
C2454      H2466   1.082       .  S
C2455      C3536   1.367       .  A
C2455      H2467   1.076       .  S
C2456      C3535   1.370   1_545  A
C2456      H2468   1.082       .  S
C2457      C2537   1.481       .  S
C2458      C2579   1.489       .  S
C2459      C2548   1.487       .  S
C2460      C2562   1.476       .  S
O2471      C2473   1.298       .  A
O2471     Zr3563   2.501       .  S
O2472      C2473   1.277       .  A
O2472     Zr2509   2.370       .  S
O2474      C2476   1.292       .  A
O2474     Zr2486   2.472   1_545  S
O2475      C2476   1.285       .  A
O2475     Zr2510   2.414       .  S
O2477      C2479   1.292       .  A
O2477     Zr3566   2.480       .  S
O2478      C2479   1.291       .  A
O2478     Zr2509   2.443       .  S
O2480      C2482   1.293       .  A
O2480     Zr2483   2.481   1_545  S
O2481      C2482   1.289       .  A
O2481     Zr2510   2.432       .  S
Zr2483     O3551   2.494       .  S
Zr2483     O2484   2.426       .  S
Zr2483     O2485   2.434       .  S
Zr2483     O3569   2.373       .  S
Zr2483     O2490   2.373   1_565  S
Zr2483     O2513   2.391   1_565  S
Zr2483     O3595   2.367       .  S
O2484      H3607   0.989       .  S
O2485      H3606   0.990       .  S
O2485      H2530   0.990   1_565  S
Zr2486     O3557   2.483       .  S
Zr2486     O2487   2.436       .  S
Zr2486     O2488   2.426       .  S
Zr2486     O2490   2.381   1_565  S
Zr2486     O3569   2.372       .  S
Zr2486     O3594   2.395       .  S
Zr2486     O2516   2.395   1_565  S
O2487      H2528   0.990   1_565  S
O2487      H2531   0.989       .  S
O2488      H3601   0.990       .  S
O2489     Zr3563   2.380       .  S
O2489     Zr3566   2.378       .  S
O2489     Zr2509   2.374       .  S
O2490     Zr2510   2.379       .  S
O2490      H2517   0.966       .  S
O2491      C2493   1.298       .  A
O2491     Zr3583   2.511       .  S
O2492      C2493   1.286       .  A
O2492     Zr2510   2.418       .  S
O2494      C2496   1.295       .  A
O2494     Zr2506   2.493       .  S
O2495      C2496   1.281       .  A
O2495     Zr2509   2.397       .  S
O2497      C2499   1.295       .  A
O2497     Zr3586   2.485       .  S
O2498      C2499   1.286       .  A
O2498     Zr2510   2.417       .  S
O2500      C2502   1.294       .  A
O2500     Zr2503   2.482       .  S
O2501      C2502   1.287       .  A
O2501     Zr2509   2.425       .  S
Zr2503     O3571   2.515       .  S
Zr2503     O2504   2.431       .  S
Zr2503     O2505   2.433       .  S
Zr2503     O3591   2.370       .  S
Zr2503     O2512   2.397       .  S
Zr2503     O2515   2.385       .  S
Zr2503     O3593   2.377       .  S
O2504      H3604   0.990       .  S
O2504      H2529   0.990       .  S
O2505      H3605   0.990       .  S
Zr2506     O3577   2.466       .  S
Zr2506     O2507   2.434       .  S
Zr2506     O2508   2.432       .  S
Zr2506     O2512   2.381       .  S
Zr2506     O3591   2.386       .  S
Zr2506     O3596   2.394       .  S
Zr2506     O2514   2.374       .  S
O2507      H2523   0.990       .  S
O2508      H3602   0.990       .  S
O2508      H2532   0.990       .  S
Zr2509     O2512   2.378       .  S
Zr2509     O2514   2.370       .  S
Zr2509     O2515   2.385       .  S
Zr2510     O2511   2.384       .  S
Zr2510     O2513   2.376       .  S
Zr2510     O2516   2.387       .  S
O2511     Zr3583   2.371       .  S
O2511     Zr3586   2.394       .  S
O2511      H2519   0.965       .  S
O2513     Zr3583   2.379       .  S
O2514     Zr3566   2.387       .  S
O2514      H2518   0.963       .  S
O2515     Zr3563   2.366       .  S
O2515      H2520   0.965       .  S
O2516     Zr3586   2.396       .  S
H2521      O3568   0.990       .  S
H2522      O3588   0.989   1_565  S
H2524      O3584   0.990       .  S
H2525      O3585   0.990   1_565  S
H2526      O3565   0.990       .  S
H2527      O3564   0.990       .  S
C2533      C2534   1.407       .  A
C2533      C2538   1.403       .  A
C2533      H2540   1.082       .  S
C2534      C2535   1.409       .  A
C2535      N2542   1.427       .  S
C2535      C2536   1.398       .  A
C2536      C2537   1.398       .  A
C2536      H2541   1.084       .  S
C2537      C2538   1.398       .  A
C2538      N2539   1.423       .  S
N2539      O2543   1.260       .  A
N2539      O2544   1.256       .  A
N2542      O2546   1.261       .  A
N2542      O2545   1.262       .  A
C2547      C2548   1.405       .  A
C2547      C2552   1.393       .  A
C2547      H2554   1.083       .  S
C2548      C2549   1.408       .  A
C2549      N2556   1.428       .  S
C2549      C2550   1.400       .  A
C2550      C2551   1.405       .  A
C2550      H2555   1.084       .  S
C2551      C2552   1.399       .  A
C2552      N2553   1.427       .  S
N2553      O2557   1.261       .  A
N2553      O2558   1.261       .  A
N2556      O2560   1.262       .  A
N2556      O2559   1.262       .  A
C2561      C2562   1.396       .  A
C2561      C2566   1.395       .  A
C2561      H2568   1.084       .  S
C2562      C2563   1.415       .  A
C2563      N2570   1.428       .  S
C2563      C2564   1.389       .  A
C2564      C2565   1.390       .  A
C2564      H2569   1.084       .  S
C2565      C2566   1.401       .  A
C2566      N2567   1.419       .  S
N2567      O2571   1.262       .  A
N2567      O2572   1.258       .  A
N2570      O2574   1.260       .  A
N2570      O2573   1.262       .  A
C2575      C2576   1.406       .  A
C2575      C2580   1.405       .  A
C2575      H2582   1.083       .  S
C2576      C2577   1.401       .  A
C2577      N2584   1.428       .  S
C2577      C2578   1.390       .  A
C2578      C2579   1.406       .  A
C2578      H2583   1.085       .  S
C2579      C2580   1.412       .  A
C2580      N2581   1.430       .  S
N2581      O2585   1.260       .  A
N2581      O2586   1.262       .  A
N2584      O2588   1.262       .  A
N2584      O2587   1.262       .  A
C2589      C2590   1.392       .  A
C2589      C2594   1.394       .  A
C2589      H2596   1.084       .  S
C2590      C2591   1.405       .  A
C2591      N2598   1.426       .  S
C2591      C2592   1.392       .  A
C2592      C2593   1.395       .  A
C2592      H2597   1.068       .  S
C2593      C2594   1.416       .  A
C2594      N2595   1.425       .  S
N2595      O2599   1.260       .  A
N2595      O2600   1.258       .  A
N2598      O2602   1.257       .  A
N2598      O2601   1.260       .  A
C2603      C2604   1.387       .  A
C2603      C2608   1.389       .  A
C2603      H2610   1.084       .  S
C2604      C2605   1.408       .  A
C2605      N2612   1.416       .  S
C2605      C2606   1.393       .  A
C2606      C2607   1.392       .  A
C2606      H2611   1.084       .  S
C2607      C2608   1.419       .  A
C2608      N2609   1.424       .  S
N2609      O2613   1.261       .  A
N2609      O2614   1.261       .  A
N2612      O2616   1.258       .  A
N2612      O2615   1.260       .  A
C2617      C2618   1.389       .  A
C2617      C2622   1.391       .  A
C2617      H2624   1.084       .  S
C2618      C2619   1.415       .  A
C2619      N2626   1.426       .  S
C2619      C2620   1.390       .  A
C2620      C2621   1.389       .  A
C2620      H2625   1.084       .  S
C2621      C2622   1.410       .  A
C2622      N2623   1.418       .  S
N2623      O2627   1.258       .  A
N2623      O2628   1.258       .  A
N2626      O2630   1.260       .  A
N2626      O2629   1.260       .  A
C2631      C2632   1.410       .  A
C2631      C2636   1.409       .  A
C2631      H2638   1.083       .  S
C2632      C2633   1.395       .  A
C2633      N2640   1.427       .  S
C2633      C2634   1.392       .  A
C2634      C2635   1.405       .  A
C2634      H2639   1.078       .  S
C2635      C2636   1.412       .  A
C2636      N2637   1.445       .  S
N2637      O2641   1.263       .  A
N2637      O2642   1.263       .  A
N2640      O2644   1.259       .  A
N2640      O2643   1.261       .  A
C2645      C2646   1.398       .  A
C2645      C2650   1.392       .  A
C2645      H2652   1.081       .  S
C2646      C2647   1.413       .  A
C2647      N2654   1.421       .  S
C2647      C2648   1.386       .  A
C2648      C2649   1.381       .  A
C2648      H2653   1.084       .  S
C2649      C2650   1.404       .  A
C2650      N2651   1.425       .  S
N2651      O2655   1.262       .  A
N2651      O2656   1.261       .  A
N2654      O2658   1.259       .  A
N2654      O2657   1.261       .  A
C2659      C2660   1.388       .  A
C2659      C2664   1.390       .  A
C2659      H2666   1.084       .  S
C2660      C2661   1.411       .  A
C2661      N2668   1.427       .  S
C2661      C2662   1.396       .  A
C2662      C2663   1.397       .  A
C2662      H2667   1.081       .  S
C2663      C2664   1.415       .  A
C2664      N2665   1.425       .  S
N2665      O2669   1.260       .  A
N2665      O2670   1.259       .  A
N2668      O2672   1.260       .  A
N2668      O2671   1.261       .  A
C2673      C2674   1.407       .  A
C2673      C2678   1.400       .  A
C2673      H2680   1.083       .  S
C2674      C2675   1.398       .  A
C2675      N2682   1.409       .  S
C2675      C2676   1.387       .  A
C2676      C2677   1.393       .  A
C2676      H2681   1.085       .  S
C2677      C2678   1.404       .  A
C2678      N2679   1.426       .  S
N2679      O2683   1.261       .  A
N2679      O2684   1.261       .  A
N2682      O2686   1.258       .  A
N2682      O2685   1.262       .  A
C2687      C2688   1.398       .  A
C2687      C2692   1.398       .  A
C2687      H2694   1.083       .  S
C2688      C2689   1.415       .  A
C2689      N2696   1.429       .  S
C2689      C2690   1.386       .  A
C2690      C2691   1.393       .  A
C2690      H2695   1.084       .  S
C2691      C2692   1.405       .  A
C2692      N2693   1.421       .  S
N2693      O2697   1.259       .  A
N2693      O2698   1.259       .  A
N2696      O2700   1.259       .  A
N2696      O2699   1.259       .  A
O2701      C2703   1.293       .  A
O2702      C2703   1.284       .  A
O2702     Zr2739   2.403       .  S
C2703      C2774   1.489       .  S
O2704      C2706   1.295       .  A
O2704     Zr2716   2.487   1_556  S
O2705      C2706   1.286       .  A
O2705     Zr2740   2.418       .  S
C2706      C2912   1.492       .  S
O2707      C2709   1.293       .  A
O2708      C2709   1.284       .  A
O2708     Zr2739   2.405       .  S
C2709      C2891   1.496       .  S
O2710      C2712   1.299       .  A
O2710     Zr2713   2.511       .  S
O2711      C2712   1.283       .  A
O2711     Zr2740   2.400       .  S
C2712      C2785   1.503       .  S
Zr2713     O2714   2.421   1_556  S
Zr2713     O2715   2.437       .  S
Zr2713     O2720   2.388       .  S
Zr2713     O2743   2.378       .  S
O2715      H2760   0.990   1_556  S
Zr2716     O2717   2.413       .  S
Zr2716     O2718   2.434       .  S
Zr2716     O2720   2.398   1_554  S
Zr2716     O2746   2.383   1_554  S
O2717      H2758   0.989       .  S
O2717      H2761   0.990       .  S
O2719     Zr2739   2.377       .  S
O2720     Zr2740   2.375       .  S
O2720      H2747   0.966       .  S
O2721      C2723   1.292       .  A
O2722      C2723   1.285       .  A
O2722     Zr2740   2.416       .  S
C2723      C2902   1.478       .  S
O2724      C2726   1.290       .  A
O2724     Zr2736   2.466       .  S
O2725      C2726   1.289       .  A
O2725     Zr2739   2.442       .  S
C2726      C2767   1.486       .  S
O2727      C2729   1.298       .  A
O2728      C2729   1.278       .  A
O2728     Zr2740   2.380       .  S
C2729      C2778   1.488       .  S
O2730      C2732   1.297       .  A
O2730     Zr2733   2.499       .  S
O2731      C2732   1.285       .  A
O2731     Zr2739   2.417       .  S
C2732      C2895   1.494       .  S
Zr2733     O2734   2.435       .  S
Zr2733     O2735   2.430       .  S
Zr2733     O2745   2.368       .  S
Zr2733     O2742   2.278       .  S
O2734      H2759   0.990       .  S
Zr2736     O2737   2.435       .  S
Zr2736     O2738   2.427       .  S
Zr2736     O2744   2.386       .  S
Zr2736     O2742   2.287       .  S
O2737      H2753   0.990       .  S
O2738      H2762   0.988       .  S
Zr2739     O2744   2.374       .  S
Zr2739     O2745   2.381       .  S
Zr2739     O2742   2.259       .  S
Zr2740     O2741   2.387       .  S
Zr2740     O2743   2.377       .  S
Zr2740     O2746   2.368       .  S
O2741      H2749   0.966       .  S
O2744      H2748   0.963       .  S
O2745      H2750   0.970       .  S
N2763      C2767   1.360       .  A
N2763      C2764   1.363       .  A
N2763      C3231   1.428       .  S
C2764      C2827   1.490       .  S
C2764      C2765   1.379       .  A
C2765      C2766   1.376       .  A
C2765      H2768   1.082       .  S
C2766      C2767   1.379       .  A
C2766      H2769   1.079       .  S
N2770      C2774   1.365       .  A
N2770      C2771   1.364       .  A
N2770      C3217   1.428       .  S
C2771      C2836   1.485       .  S
C2771      C2772   1.382       .  A
C2772      C2773   1.356       .  A
C2772      H2775   1.083       .  S
C2773      C2774   1.381       .  A
C2773      H2776   1.083       .  S
N2777      C2781   1.356       .  A
N2777      C2778   1.358       .  A
N2777      C3200   1.424       .  S
C2778      C2779   1.381       .  A
C2779      C2780   1.365       .  A
C2779      H2782   1.080       .  S
C2780      C2781   1.382       .  A
C2780      H2783   1.083       .  S
C2781      C2850   1.478       .  S
N2784      C2788   1.365       .  A
N2784      C2785   1.365       .  A
N2784      C3189   1.418       .  S
C2785      C2786   1.381       .  A
C2786      C2787   1.367       .  A
C2786      H2789   1.083       .  S
C2787      C2788   1.384       .  A
C2787      H2790   1.081       .  S
C2788      C2853   1.505       .  S
N2791      C2796   1.354   1_554  A
N2791      H2823   1.033       .  S
N2792      C2800   1.348       .  A
N2793      C2798   1.346   1_554  A
N2793      H2824   1.035       .  S
N2794      C2802   1.351       .  A
C2795      C2803   1.383       .  A
C2795      C2811   1.411       .  A
C2796      C2812   1.410       .  A
C2796      C2804   1.381       .  A
C2797      C2805   1.390       .  A
C2797      C2814   1.412       .  A
C2798      C2813   1.399       .  A
C2798      C2806   1.383       .  A
C2799      C2811   1.407       .  A
C2799      C2807   1.384       .  A
C2800      C2814   1.412       .  A
C2800      C2808   1.386       .  A
C2801      C2809   1.382       .  A
C2801      C2812   1.408       .  A
C2802      C2810   1.380       .  A
C2802      C2813   1.408       .  A
C2803      H2815   1.082       .  S
C2804      H2816   1.081       .  S
C2805      H2817   1.080       .  S
C2806      H2818   1.083       .  S
C2807      H2819   1.081       .  S
C2808      H2820   1.083       .  S
C2809      H2821   1.080       .  S
C2810      H2822   1.078       .  S
C2811      C3214   1.489       .  S
C2812      C3186   1.485       .  S
C2813      C3203   1.479       .  S
C2814      C3228   1.479       .  S
O2825      C2827   1.294       .  A
O2826      C2827   1.286       .  A
O2826     Zr2863   2.433       .  S
O2828      C2830   1.291       .  A
O2828     Zr2840   2.477       .  S
O2829      C2830   1.289       .  A
O2829     Zr2864   2.436       .  S
C2830      C2974   1.497       .  S
O2831      C2833   1.291       .  A
O2832      C2833   1.289       .  A
O2832     Zr2863   2.434       .  S
C2833      C2950   1.494       .  S
O2834      C2836   1.294       .  A
O2834     Zr2837   2.485       .  S
O2835      C2836   1.279       .  A
O2835     Zr2864   2.381       .  S
Zr2837     O2838   2.422       .  S
Zr2837     O2839   2.432       .  S
Zr2837     O2844   2.384       .  S
Zr2837     O2867   2.279       .  S
O2839      H2884   0.991   1_655  S
Zr2840     O2842   2.430       .  S
Zr2840     O2844   2.390       .  S
Zr2840     O2870   2.290       .  S
O2843     Zr2863   2.255       .  S
O2844     Zr2864   2.376       .  S
O2844      H2871   0.966       .  S
O2845      C2847   1.291       .  A
O2846      C2847   1.286       .  A
O2846     Zr2864   2.428       .  S
C2847      C2957   1.484       .  S
O2848      C2850   1.297       .  A
O2848     Zr2860   2.494       .  S
O2849      C2850   1.278       .  A
O2849     Zr2863   2.375       .  S
O2851      C2853   1.300       .  A
O2852      C2853   1.281       .  A
O2852     Zr2864   2.395       .  S
O2854      C2856   1.294       .  A
O2854     Zr2857   2.491       .  S
O2855      C2856   1.287       .  A
O2855     Zr2863   2.424       .  S
C2856      C2964   1.500       .  S
Zr2857     O2858   2.425       .  S
Zr2857     O2859   2.433       .  S
Zr2857     O2866   2.373       .  S
Zr2857     O2869   2.373       .  S
O2858      H2883   0.990       .  S
Zr2860     O2861   2.433       .  S
Zr2860     O2862   2.423       .  S
Zr2860     O2866   2.397       .  S
Zr2860     O2868   2.406       .  S
O2861      H2877   0.990       .  S
O2862      H2886   0.990       .  S
Zr2863     O2866   2.385       .  S
Zr2863     O2868   2.392       .  S
Zr2863     O2869   2.378       .  S
Zr2864     O2865   2.385       .  S
Zr2864     O2867   2.260       .  S
Zr2864     O2870   2.256       .  S
O2865      H2873   0.966       .  S
O2868      H2872   0.965       .  S
O2869      H2874   0.965       .  S
N2887      C2891   1.370       .  A
N2887      C2888   1.359       .  A
N2887      C3172   1.436       .  S
C2888      C3013   1.479       .  S
C2888      C2889   1.378       .  A
C2889      C2890   1.359       .  A
C2889      H2892   1.082       .  S
C2890      C2891   1.385       .  A
C2890      H2893   1.083       .  S
N2894      C2898   1.364       .  A
N2894      C2895   1.363       .  A
N2894      C3161   1.425       .  S
C2895      C2896   1.377       .  A
C2896      C2897   1.371       .  A
C2896      H2899   1.075       .  S
C2897      C2898   1.375       .  A
C2897      H2900   1.074       .  S
C2898      C3022   1.496       .  S
N2901      C2905   1.361       .  A
N2901      C2902   1.356       .  A
N2901      C3144   1.429       .  S
C2902      C2903   1.378       .  A
C2903      C2904   1.371       .  A
C2903      H2906   1.072       .  S
C2904      C2905   1.380       .  A
C2904      H2907   1.083       .  S
C2905      C3039   1.483       .  S
N2908      C2912   1.361       .  A
N2908      C2909   1.360       .  A
N2908      C3130   1.424       .  S
C2909      C3036   1.488       .  S
C2909      C2910   1.382       .  A
C2910      C2911   1.374       .  A
C2910      H2913   1.082       .  S
C2911      C2912   1.379       .  A
C2911      H2914   1.082       .  S
N2915      C4000   1.350       .  A
N2915      C2919   1.355       .  A
N2915      H2947   1.033       .  S
N2916      C2924   1.348   1_554  A
N2917      C4002   1.345       .  A
N2917      C2921   1.347       .  A
N2917      H2948   1.035       .  S
N2918      C2926   1.351   1_554  A
C2919      C2927   1.385       .  A
C2919      C2935   1.416       .  A
C2920      N3995   1.352       .  A
C2920      C2936   1.409       .  A
C2920      C2928   1.386       .  A
C2921      C2929   1.386       .  A
C2921      C2938   1.404       .  A
C2922      N3997   1.345       .  A
C2922      C2937   1.397       .  A
C2922      C2930   1.381       .  A
C2923      C2935   1.413       .  A
C2923      C2931   1.387       .  A
C2924      C2938   1.404       .  A
C2924      C2932   1.374       .  A
C2925      C2933   1.388       .  A
C2925      C2936   1.405       .  A
C2926      C2934   1.383       .  A
C2926      C2937   1.410       .  A
C2927      C4008   1.364       .  A
C2927      H2939   1.078       .  S
C2928      C4007   1.363   1_545  A
C2928      H2940   1.083       .  S
C2929      C4010   1.369       .  A
C2929      H2941   1.079       .  S
C2930      C4009   1.370   1_545  A
C2930      H2942   1.079       .  S
C2931      H2943   1.082       .  S
C2932      H2944   1.079       .  S
C2933      H2945   1.081       .  S
C2934      H2946   1.079       .  S
C2935      C3175   1.492       .  S
C2936      C3158   1.479       .  S
C2937      C3147   1.485       .  S
C2938      C3133   1.484       .  S
N2949      C2953   1.359       .  A
N2949      C2950   1.367       .  A
N2949      C3116   1.427       .  S
C2950      C2951   1.379       .  A
C2951      C2952   1.375       .  A
C2951      H2954   1.080       .  S
C2952      C2953   1.378       .  A
C2952      H2955   1.078       .  S
C2953      C3042   1.490       .  S
N2956      C2960   1.356       .  A
N2956      C2957   1.357       .  A
N2956      C3105   1.423       .  S
C2957      C2958   1.379       .  A
C2958      C2959   1.376       .  A
C2958      H2961   1.077       .  S
C2959      C2960   1.375       .  A
C2959      H2962   1.079       .  S
C2960      C3016   1.480       .  S
N2963      C2967   1.370       .  A
N2963      C2964   1.369       .  A
N2963      C3091   1.431       .  S
C2964      C2965   1.381       .  A
C2965      C2966   1.366       .  A
C2965      H2968   1.083       .  S
C2966      C2967   1.383       .  A
C2966      H2969   1.081       .  S
C2967      C3033   1.507       .  S
N2970      C2974   1.368       .  A
N2970      C2971   1.368       .  A
N2970      C3074   1.436       .  S
C2971      C3019   1.497       .  S
C2971      C2972   1.384       .  A
C2972      C2973   1.370       .  A
C2972      H2975   1.083       .  S
C2973      C2974   1.383       .  A
C2973      H2976   1.083       .  S
N2977      C2982   1.349       .  A
N2977      H3009   1.036       .  S
N2978      C2985   1.346       .  A
N2978      C4066   1.344       .  A
N2979      C2984   1.356       .  A
N2979      H3010   1.034       .  S
N2980      C2987   1.355       .  A
N2980      C4068   1.352       .  A
C2981      C2989   1.381       .  A
C2981      C2997   1.404       .  A
C2982      C2998   1.410       .  A
C2982      C2990   1.389       .  A
C2983      C2991   1.384       .  A
C2983      C3000   1.413       .  A
C2984      C2999   1.417       .  A
C2984      C2992   1.386       .  A
C2985      C2997   1.403       .  A
C2985      C2993   1.380       .  A
C2986      N4058   1.345       .  A
C2986      C3000   1.406       .  A
C2986      C2994   1.389       .  A
C2987      C2995   1.380       .  A
C2987      C2998   1.413       .  A
C2988      N4060   1.350       .  A
C2988      C2996   1.386       .  A
C2988      C2999   1.413       .  A
C2989      H3001   1.081       .  S
C2990      H3002   1.081       .  S
C2991      H3003   1.083       .  S
C2992      H3004   1.081       .  S
C2993      C4074   1.360       .  A
C2993      H3005   1.080       .  S
C2994      C4073   1.364   1_545  A
C2994      H3006   1.082       .  S
C2995      C4076   1.367       .  A
C2995      H3007   1.077       .  S
C2996      C4075   1.367   1_545  A
C2996      H3008   1.083       .  S
C2997      C3077   1.480       .  S
C2998      C3119   1.486       .  S
C2999      C3088   1.488       .  S
C3000      C3102   1.476       .  S
O3011      C3013   1.294       .  A
O3011     Zr4103   2.487       .  S
O3012      C3013   1.278       .  A
O3012     Zr3049   2.376       .  S
O3014      C3016   1.293       .  A
O3014     Zr3026   2.479   1_545  S
O3015      C3016   1.286       .  A
O3015     Zr3050   2.415       .  S
O3017      C3019   1.292       .  A
O3017     Zr4106   2.482       .  S
O3018      C3019   1.289       .  A
O3018     Zr3049   2.436       .  S
O3020      C3022   1.294       .  A
O3020     Zr3023   2.487   1_545  S
O3021      C3022   1.289       .  A
O3021     Zr3050   2.435       .  S
Zr3023     O4091   2.490       .  S
Zr3023     O3024   2.425       .  S
Zr3023     O3025   2.434       .  S
Zr3023     O4109   2.383       .  S
Zr3023     O3030   2.375   1_565  S
Zr3023     O3053   2.387   1_565  S
Zr3023     O4135   2.370       .  S
O3024      H4147   0.988       .  S
O3025      H4146   0.990       .  S
O3025      H3070   0.990   1_565  S
Zr3026     O4097   2.492       .  S
Zr3026     O3027   2.431       .  S
Zr3026     O3028   2.425       .  S
Zr3026     O3030   2.388   1_565  S
Zr3026     O4109   2.378       .  S
Zr3026     O4134   2.396       .  S
Zr3026     O3056   2.397   1_565  S
O3027      H3068   0.989       .  S
O3027      H3071   0.990   1_565  S
O3028      H4141   0.991       .  S
O3029     Zr4103   2.382       .  S
O3029     Zr4106   2.382       .  S
O3029     Zr3049   2.374       .  S
O3030     Zr3050   2.382       .  S
O3030      H3057   0.966       .  S
O3031      C3033   1.297       .  A
O3031     Zr4123   2.506       .  S
O3032      C3033   1.288       .  A
O3032     Zr3050   2.424       .  S
O3034      C3036   1.295       .  A
O3034     Zr3046   2.491       .  S
O3035      C3036   1.282       .  A
O3035     Zr3049   2.402       .  S
O3037      C3039   1.295       .  A
O3037     Zr4126   2.487       .  S
O3038      C3039   1.284       .  A
O3038     Zr3050   2.412       .  S
O3040      C3042   1.295       .  A
O3040     Zr3043   2.487       .  S
O3041      C3042   1.287       .  A
O3041     Zr3049   2.428       .  S
Zr3043     O4111   2.515       .  S
Zr3043     O3044   2.428       .  S
Zr3043     O3045   2.434       .  S
Zr3043     O4131   2.372       .  S
Zr3043     O3055   2.386       .  S
Zr3043     O4133   2.376       .  S
Zr3043     O3052   2.293       .  S
O3044      H4144   0.990       .  S
O3044      H3069   0.990       .  S
O3045      H4145   0.990       .  S
Zr3046     O4117   2.475       .  S
Zr3046     O3047   2.435       .  S
Zr3046     O3048   2.431       .  S
Zr3046     O4131   2.384       .  S
Zr3046     O4136   2.387       .  S
Zr3046     O3054   2.377       .  S
Zr3046     O3052   2.284       .  S
O3047      H3063   0.990       .  S
O3048      H4142   0.990       .  S
O3048      H3072   0.990       .  S
Zr3049     O3054   2.375       .  S
Zr3049     O3055   2.385       .  S
Zr3049     O3052   2.265       .  S
Zr3050     O3051   2.389       .  S
Zr3050     O3053   2.375       .  S
Zr3050     O3056   2.392       .  S
O3051     Zr4123   2.371       .  S
O3051     Zr4126   2.392       .  S
O3051      H3059   0.965       .  S
O3053     Zr4123   2.375       .  S
O3054     Zr4106   2.393       .  S
O3054      H3058   0.963       .  S
O3055     Zr4103   2.372       .  S
O3055      H3060   0.965       .  S
O3056     Zr4126   2.389       .  S
H3061      O4108   0.990       .  S
H3062      O4128   0.990   1_565  S
H3064      O4124   0.990       .  S
H3065      O4125   0.990   1_565  S
H3066      O4105   0.990       .  S
H3067      O4104   0.989       .  S
C3073      C3074   1.407       .  A
C3073      C3078   1.403       .  A
C3073      H3080   1.080       .  S
C3074      C3075   1.408       .  A
C3075      N3082   1.426       .  S
C3075      C3076   1.397       .  A
C3076      C3077   1.397       .  A
C3076      H3081   1.084       .  S
C3077      C3078   1.397       .  A
C3078      N3079   1.424       .  S
N3079      O3083   1.259       .  A
N3079      O3084   1.257       .  A
N3082      O3086   1.261       .  A
N3082      O3085   1.261       .  A
C3087      C3088   1.406       .  A
C3087      C3092   1.395       .  A
C3087      H3094   1.083       .  S
C3088      C3089   1.406       .  A
C3089      N3096   1.427       .  S
C3089      C3090   1.399       .  A
C3090      C3091   1.404       .  A
C3090      H3095   1.084       .  S
C3091      C3092   1.402       .  A
C3092      N3093   1.427       .  S
N3093      O3097   1.261       .  A
N3093      O3098   1.261       .  A
N3096      O3100   1.262       .  A
N3096      O3099   1.262       .  A
C3101      C3102   1.397       .  A
C3101      C3106   1.395       .  A
C3101      H3108   1.084       .  S
C3102      C3103   1.415       .  A
C3103      N3110   1.429       .  S
C3103      C3104   1.391       .  A
C3104      C3105   1.391       .  A
C3104      H3109   1.084       .  S
C3105      C3106   1.403       .  A
C3106      N3107   1.420       .  S
N3107      O3111   1.262       .  A
N3107      O3112   1.259       .  A
N3110      O3114   1.261       .  A
N3110      O3113   1.262       .  A
C3115      C3116   1.405       .  A
C3115      C3120   1.402       .  A
C3115      H3122   1.082       .  S
C3116      C3117   1.400       .  A
C3117      N3124   1.428       .  S
C3117      C3118   1.388       .  A
C3118      C3119   1.406       .  A
C3118      H3123   1.085       .  S
C3119      C3120   1.411       .  A
C3120      N3121   1.430       .  S
N3121      O3125   1.260       .  A
N3121      O3126   1.262       .  A
N3124      O3128   1.262       .  A
N3124      O3127   1.262       .  A
C3129      C3130   1.391       .  A
C3129      C3134   1.393       .  A
C3129      H3136   1.084       .  S
C3130      C3131   1.404       .  A
C3131      N3138   1.425       .  S
C3131      C3132   1.391       .  A
C3132      C3133   1.394       .  A
C3132      H3137   1.067       .  S
C3133      C3134   1.414       .  A
C3134      N3135   1.424       .  S
N3135      O3139   1.259       .  A
N3135      O3140   1.257   1_556  A
N3138      O3142   1.257       .  A
N3138      O3141   1.260       .  A
C3143      C3144   1.386       .  A
C3143      C3148   1.389       .  A
C3143      H3150   1.084       .  S
C3144      C3145   1.408       .  A
C3145      N3152   1.416       .  S
C3145      C3146   1.394       .  A
C3146      C3147   1.392       .  A
C3146      H3151   1.084       .  S
C3147      C3148   1.419       .  A
C3148      N3149   1.423       .  S
N3149      O3153   1.260       .  A
N3149      O3154   1.261       .  A
N3152      O3156   1.258       .  A
N3152      O3155   1.260       .  A
C3157      C3158   1.390       .  A
C3157      C3162   1.392       .  A
C3157      H3164   1.084       .  S
C3158      C3159   1.416       .  A
C3159      N3166   1.426       .  S
C3159      C3160   1.390       .  A
C3160      C3161   1.389       .  A
C3160      H3165   1.084       .  S
C3161      C3162   1.408       .  A
C3162      N3163   1.417       .  S
N3163      O3167   1.258       .  A
N3163      O3168   1.259       .  A
N3166      O3170   1.260       .  A
N3166      O3169   1.260       .  A
C3171      C3172   1.410       .  A
C3171      C3176   1.411       .  A
C3171      H3178   1.083       .  S
C3172      C3173   1.397       .  A
C3173      N3180   1.427       .  S
C3173      C3174   1.393       .  A
C3174      C3175   1.405       .  A
C3174      H3179   1.079       .  S
C3175      C3176   1.412       .  A
C3176      N3177   1.444       .  S
N3177      O3181   1.263       .  A
N3177      O3182   1.263       .  A
N3180      O3184   1.259       .  A
N3180      O3183   1.262       .  A
C3185      C3186   1.399       .  A
C3185      C3190   1.394       .  A
C3185      H3192   1.079       .  S
C3186      C3187   1.415       .  A
C3187      N3194   1.424       .  S
C3187      C3188   1.390       .  A
C3188      C3189   1.385       .  A
C3188      H3193   1.083       .  S
C3189      C3190   1.403       .  A
C3190      N3191   1.427       .  S
N3191      O3195   1.262       .  A
N3191      O3196   1.261       .  A
N3194      O3198   1.260       .  A
N3194      O3197   1.261       .  A
C3199      C3200   1.387       .  A
C3199      C3204   1.389       .  A
C3199      H3206   1.084       .  S
C3200      C3201   1.412       .  A
C3201      N3208   1.428       .  S
C3201      C3202   1.394       .  A
C3202      C3203   1.396       .  A
C3202      H3207   1.080       .  S
C3203      C3204   1.416       .  A
C3204      N3205   1.426       .  S
N3205      O3209   1.260       .  A
N3205      O3210   1.260       .  A
N3208      O3212   1.259       .  A
N3208      O3211   1.262       .  A
C3213      C3214   1.406       .  A
C3213      C3218   1.401       .  A
C3213      H3220   1.082       .  S
C3214      C3215   1.398       .  A
C3215      N3222   1.410       .  S
C3215      C3216   1.388       .  A
C3216      C3217   1.393       .  A
C3216      H3221   1.084       .  S
C3217      C3218   1.404       .  A
C3218      N3219   1.426       .  S
N3219      O3223   1.261       .  A
N3219      O3224   1.261       .  A
N3222      O3226   1.258       .  A
N3222      O3225   1.262       .  A
C3227      C3228   1.399       .  A
C3227      C3232   1.399       .  A
C3227      H3234   1.084       .  S
C3228      C3229   1.415       .  A
C3229      N3236   1.429       .  S
C3229      C3230   1.384       .  A
C3230      C3231   1.392       .  A
C3230      H3235   1.084       .  S
C3231      C3232   1.407       .  A
C3232      N3233   1.422       .  S
N3233      O3237   1.259       .  A
N3233      O3238   1.260       .  A
N3236      O3240   1.258       .  A
N3236      O3239   1.259       .  A
O3241      C3243   1.294       .  A
O3241     Zr3793   2.489   1_554  S
O3242      C3243   1.283       .  A
O3242     Zr3279   2.401       .  S
C3243      C3314   1.492       .  S
O3244      C3246   1.298       .  A
O3244     Zr3256   2.501       .  S
O3245      C3246   1.285       .  A
O3245     Zr3280   2.411       .  S
C3246      C3452   1.498       .  S
O3247      C3249   1.294       .  A
O3247     Zr3796   2.506       .  S
O3248      C3249   1.282       .  A
O3248     Zr3279   2.394       .  S
C3249      C3431   1.499       .  S
O3250      C3252   1.300       .  A
O3250     Zr3253   2.519       .  S
O3251      C3252   1.282       .  A
O3251     Zr3280   2.397       .  S
C3252      C3325   1.506       .  S
Zr3253     O3781   2.486       .  S
Zr3253     O3254   2.412       .  S
Zr3253     O3255   2.434       .  S
Zr3253     O3799   2.399       .  S
Zr3253     O3260   2.381       .  S
Zr3253     O3283   2.382       .  S
Zr3253     O3825   2.394       .  S
O3254      H3837   0.990       .  S
O3255      H3836   0.990       .  S
O3255      H3300   0.990       .  S
Zr3256     O3787   2.512       .  S
Zr3256     O3257   2.419       .  S
Zr3256     O3258   2.434       .  S
Zr3256     O3260   2.396       .  S
Zr3256     O3799   2.388       .  S
Zr3256     O3824   2.389       .  S
Zr3256     O3286   2.389       .  S
O3257      H3298   0.990       .  S
O3257      H3301   0.990       .  S
O3258      H3831   0.990       .  S
O3259     Zr3793   2.302   1_554  S
O3259     Zr3796   2.288       .  S
O3259     Zr3279   2.268       .  S
O3260     Zr3280   2.373       .  S
O3260      H3287   0.966       .  S
O3261      C3263   1.291       .  A
O3261     Zr3813   2.468       .  S
O3262      C3263   1.285       .  A
O3262     Zr3280   2.419       .  S
C3263      C3442   1.475       .  S
O3264      C3266   1.291       .  A
O3264     Zr3276   2.471   1_554  S
O3265      C3266   1.288       .  A
O3265     Zr3279   2.439       .  S
C3266      C3307   1.489       .  S
O3267      C3269   1.295       .  A
O3267     Zr3816   2.488       .  S
O3268      C3269   1.278       .  A
O3268     Zr3280   2.378       .  S
C3269      C3318   1.478       .  S
O3270      C3272   1.294       .  A
O3270     Zr3273   2.489   1_554  S
O3271      C3272   1.283       .  A
O3271     Zr3279   2.411       .  S
C3272      C3435   1.489       .  S
Zr3273     O3801   2.472       .  S
Zr3273     O3274   2.436       .  S
Zr3273     O3275   2.435       .  S
Zr3273     O3821   2.382       .  S
Zr3273     O3285   2.372   1_556  S
Zr3273     O3823   2.390       .  S
Zr3273     O3282   2.283   1_556  S
O3274      H3834   0.990   1_556  S
O3274      H3299   0.990       .  S
O3275      H3835   0.990       .  S
Zr3276     O3807   2.492       .  S
Zr3276     O3277   2.435       .  S
Zr3276     O3278   2.432       .  S
Zr3276     O3821   2.374       .  S
Zr3276     O3826   2.375       .  S
Zr3276     O3284   2.389   1_556  S
Zr3276     O3282   2.290   1_556  S
O3277      H3293   0.991       .  S
O3278      H3832   0.990       .  S
O3278      H3302   0.990   1_556  S
Zr3279     O3284   2.377       .  S
Zr3279     O3285   2.379       .  S
Zr3279     O3282   2.256       .  S
Zr3280     O3281   2.382       .  S
Zr3280     O3283   2.378       .  S
Zr3280     O3286   2.379       .  S
O3281     Zr3813   2.381       .  S
O3281     Zr3816   2.367       .  S
O3281      H3289   0.965       .  S
O3283     Zr3813   2.389       .  S
O3284     Zr3796   2.390       .  S
O3284      H3288   0.965       .  S
O3285     Zr3793   2.392   1_554  S
O3285      H3290   0.974       .  S
O3286     Zr3816   2.375       .  S
H3291      O3798   0.990   1_556  S
H3292      O3818   0.990       .  S
H3294      O3814   0.990       .  S
H3295      O3815   0.990       .  S
H3296      O3795   0.990       .  S
H3297      O3794   0.990   1_556  S
N3303      C3307   1.362       .  A
N3303      C3304   1.366       .  A
N3303      C3771   1.428       .  S
C3304      C3367   1.492       .  S
C3304      C3305   1.379       .  A
C3305      C3306   1.375       .  A
C3305      H3308   1.083       .  S
C3306      C3307   1.379       .  A
C3306      H3309   1.079       .  S
N3310      C3314   1.365       .  A
N3310      C3311   1.363       .  A
N3310      C3757   1.424       .  S
C3311      C3376   1.487       .  S
C3311      C3312   1.382       .  A
C3312      C3313   1.358       .  A
C3312      H3315   1.082       .  S
C3313      C3314   1.382       .  A
C3313      H3316   1.083       .  S
N3317      C3321   1.359       .  A
N3317      C3318   1.356       .  A
N3317      C3740   1.430       .  S
C3318      C3319   1.380       .  A
C3319      C3320   1.364       .  A
C3319      H3322   1.080       .  S
C3320      C3321   1.382       .  A
C3320      H3323   1.083       .  S
C3321      C3390   1.477       .  S
N3324      C3328   1.366       .  A
N3324      C3325   1.364       .  A
N3324      C3729   1.418       .  S
C3325      C3326   1.381       .  A
C3326      C3327   1.367       .  A
C3326      H3329   1.083       .  S
C3327      C3328   1.383       .  A
C3327      H3330   1.082       .  S
C3328      C3393   1.505       .  S
N3331      C3336   1.351       .  A
N3331      C3875   1.348       .  A
N3331      H3363   1.027       .  S
N3332      C3340   1.350       .  A
N3333      C3338   1.355       .  A
N3333      C3877   1.353       .  A
N3333      H3364   1.032       .  S
N3334      C3342   1.342       .  A
C3335      N3871   1.354       .  A
C3335      C3343   1.385       .  A
C3335      C3351   1.415       .  A
C3336      C3352   1.410       .  A
C3336      C3344   1.378       .  A
C3337      N3873   1.347       .  A
C3337      C3345   1.387       .  A
C3337      C3354   1.406       .  A
C3338      C3353   1.417       .  A
C3338      C3346   1.386       .  A
C3339      C3351   1.408       .  A
C3339      C3347   1.386       .  A
C3340      C3354   1.412       .  A
C3340      C3348   1.385       .  A
C3341      C3349   1.385       .  A
C3341      C3352   1.407       .  A
C3342      C3350   1.383       .  A
C3342      C3353   1.405       .  A
C3343      C3884   1.364   1_554  A
C3343      H3355   1.083       .  S
C3344      C3883   1.370       .  A
C3344      H3356   1.081       .  S
C3345      C3886   1.372   1_554  A
C3345      H3357   1.081       .  S
C3346      C3885   1.365       .  A
C3346      H3358   1.078       .  S
C3347      H3359   1.080       .  S
C3348      H3360   1.083       .  S
C3349      H3361   1.080       .  S
C3350      H3362   1.081       .  S
C3351      C3754   1.486       .  S
C3352      C3726   1.486       .  S
C3353      C3743   1.488       .  S
C3354      C3768   1.479       .  S
O3365      C3367   1.294       .  A
O3366      C3367   1.288       .  A
O3366     Zr3403   2.441       .  S
O3368      C3370   1.291       .  A
O3368     Zr3380   2.474       .  S
O3369      C3370   1.293       .  A
O3369     Zr3404   2.449       .  S
C3370      C3514   1.498       .  S
O3371      C3373   1.293       .  A
O3372      C3373   1.288       .  A
O3372     Zr3403   2.426       .  S
C3373      C3490   1.493       .  S
O3374      C3376   1.297       .  A
O3374     Zr3377   2.498       .  S
O3375      C3376   1.279       .  A
O3375     Zr3404   2.374       .  S
Zr3377     O3378   2.419       .  S
Zr3377     O3379   2.434       .  S
Zr3377     O3384   2.373       .  S
Zr3377     O3407   2.367       .  S
O3379      H3424   0.990   1_655  S
Zr3380     O3382   2.428       .  S
Zr3380     O3384   2.386       .  S
Zr3380     O3410   2.394       .  S
O3383     Zr3403   2.368       .  S
O3384     Zr3404   2.370       .  S
O3384      H3411   0.966       .  S
O3385      C3387   1.291       .  A
O3386      C3387   1.287       .  A
O3386     Zr3404   2.426       .  S
C3387      C3497   1.481       .  S
O3388      C3390   1.294       .  A
O3388     Zr3400   2.482       .  S
O3389      C3390   1.282       .  A
O3389     Zr3403   2.390       .  S
O3391      C3393   1.301       .  A
O3392      C3393   1.282       .  A
O3392     Zr3404   2.395       .  S
O3394      C3396   1.296       .  A
O3394     Zr3397   2.497       .  S
O3395      C3396   1.286       .  A
O3395     Zr3403   2.417       .  S
C3396      C3504   1.498       .  S
Zr3397     O3398   2.429       .  S
Zr3397     O3399   2.433       .  S
Zr3397     O3406   2.371       .  S
Zr3397     O3409   2.374       .  S
O3398      H3423   0.990       .  S
Zr3400     O3401   2.434       .  S
Zr3400     O3402   2.422       .  S
Zr3400     O3406   2.393       .  S
Zr3400     O3408   2.402       .  S
O3401      H3417   0.990       .  S
O3402      H3426   0.990       .  S
Zr3403     O3406   2.385       .  S
Zr3403     O3408   2.388       .  S
Zr3403     O3409   2.376       .  S
Zr3404     O3405   2.385       .  S
Zr3404     O3407   2.376       .  S
Zr3404     O3410   2.370       .  S
O3405      H3413   0.966       .  S
O3408      H3412   0.966       .  S
O3409      H3414   0.965       .  S
N3427      C3431   1.370       .  A
N3427      C3428   1.360       .  A
N3427      C3712   1.435       .  S
C3428      C3553   1.482       .  S
C3428      C3429   1.378       .  A
C3429      C3430   1.359       .  A
C3429      H3432   1.080       .  S
C3430      C3431   1.386       .  A
C3430      H3433   1.083       .  S
N3434      C3438   1.363       .  A
N3434      C3435   1.361       .  A
N3434      C3701   1.426       .  S
C3435      C3436   1.377       .  A
C3436      C3437   1.369       .  A
C3436      H3439   1.076       .  S
C3437      C3438   1.376       .  A
C3437      H3440   1.074       .  S
C3438      C3562   1.492       .  S
N3441      C3445   1.357       .  A
N3441      C3442   1.354       .  A
N3441      C3684   1.427       .  S
C3442      C3443   1.379       .  A
C3443      C3444   1.373       .  A
C3443      H3446   1.075       .  S
C3444      C3445   1.380       .  A
C3444      H3447   1.083       .  S
C3445      C3579   1.476       .  S
N3448      C3452   1.363       .  A
N3448      C3449   1.367       .  A
N3448      C3670   1.425       .  S
C3449      C3576   1.500       .  S
C3449      C3450   1.384       .  A
C3450      C3451   1.367       .  A
C3450      H3453   1.083       .  S
C3451      C3452   1.380       .  A
C3451      H3454   1.082       .  S
N3455      C3459   1.358   1_545  A
N3455      H3487   1.036       .  S
N3456      C4003   1.346       .  A
N3456      C3464   1.348       .  A
N3457      C3461   1.344   1_545  A
N3457      H3488   1.036       .  S
N3458      C4005   1.348       .  A
N3458      C3466   1.351       .  A
C3459      C3467   1.384       .  A
C3459      C3475   1.414       .  A
C3460      C3476   1.407       .  A
C3460      C3468   1.385       .  A
C3461      C3469   1.382       .  A
C3461      C3478   1.397       .  A
C3462      C3477   1.397       .  A
C3462      C3470   1.381       .  A
C3463      N3996   1.346       .  A
C3463      C3475   1.410       .  A
C3463      C3471   1.387       .  A
C3464      C3478   1.400       .  A
C3464      C3472   1.373       .  A
C3465      N3998   1.347       .  A
C3465      C3473   1.386       .  A
C3465      C3476   1.405       .  A
C3466      C3474   1.384       .  A
C3466      C3477   1.410       .  A
C3467      H3479   1.078       .  S
C3468      H3480   1.083       .  S
C3469      H3481   1.077       .  S
C3470      H3482   1.081       .  S
C3471      C4012   1.367   1_554  A
C3471      H3483   1.081       .  S
C3472      C4011   1.364       .  A
C3472      H3484   1.077       .  S
C3473      C4014   1.363   1_554  A
C3473      H3485   1.081       .  S
C3474      C4013   1.363       .  A
C3474      H3486   1.079       .  S
C3475      C3715   1.493       .  S
C3476      C3698   1.479       .  S
C3477      C3687   1.480       .  S
C3478      C3673   1.478       .  S
N3489      C3493   1.359       .  A
N3489      C3490   1.366       .  A
N3489      C3656   1.424       .  S
C3490      C3491   1.380       .  A
C3491      C3492   1.371       .  A
C3491      H3494   1.082       .  S
C3492      C3493   1.375       .  A
C3492      H3495   1.075       .  S
C3493      C3582   1.491       .  S
N3496      C3500   1.356       .  A
N3496      C3497   1.355       .  A
N3496      C3645   1.423       .  S
C3497      C3498   1.377       .  A
C3498      C3499   1.374       .  A
C3498      H3501   1.075       .  S
C3499      C3500   1.373       .  A
C3499      H3502   1.079       .  S
C3500      C3556   1.476       .  S
N3503      C3507   1.369       .  A
N3503      C3504   1.368       .  A
N3503      C3631   1.431       .  S
C3504      C3505   1.380       .  A
C3505      C3506   1.366       .  A
C3505      H3508   1.083       .  S
C3506      C3507   1.384       .  A
C3506      H3509   1.081       .  S
C3507      C3573   1.506       .  S
N3510      C3514   1.368       .  A
N3510      C3511   1.366       .  A
N3510      C3614   1.434       .  S
C3511      C3559   1.498       .  S
C3511      C3512   1.383       .  A
C3512      C3513   1.373       .  A
C3512      H3515   1.083       .  S
C3513      C3514   1.383       .  A
C3513      H3516   1.083       .  S
N3517      C3522   1.346       .  A
N3517      H3549   1.031       .  S
N3518      C3525   1.348   1_545  A
N3519      C3524   1.355       .  A
N3519      H3550   1.033       .  S
N3520      C3527   1.351   1_545  A
C3521      C3529   1.381       .  A
C3521      C3537   1.400       .  A
C3522      C3538   1.407       .  A
C3522      C3530   1.387       .  A
C3523      C3531   1.383       .  A
C3523      C3540   1.412       .  A
C3524      C3539   1.417       .  A
C3524      C3532   1.387       .  A
C3525      C3537   1.403       .  A
C3525      C3533   1.379       .  A
C3526      C3540   1.403       .  A
C3526      C3534   1.388       .  A
C3527      C3535   1.380       .  A
C3527      C3538   1.409       .  A
C3528      C3536   1.387       .  A
C3528      C3539   1.416       .  A
C3529      H3541   1.081       .  S
C3530      H3542   1.082       .  S
C3531      H3543   1.082       .  S
C3532      H3544   1.082       .  S
C3533      H3545   1.081       .  S
C3534      H3546   1.082       .  S
C3535      H3547   1.081       .  S
C3536      H3548   1.083       .  S
C3537      C3617   1.479       .  S
C3538      C3659   1.479       .  S
C3539      C3628   1.487       .  S
C3540      C3642   1.477       .  S
O3551      C3553   1.297       .  A
O3552      C3553   1.278       .  A
O3552     Zr3589   2.374       .  S
O3554      C3556   1.289       .  A
O3554     Zr3566   2.464       .  S
O3555      C3556   1.286       .  A
O3555     Zr3590   2.419       .  S
O3557      C3559   1.294       .  A
O3558      C3559   1.289       .  A
O3558     Zr3589   2.436       .  S
O3560      C3562   1.294       .  A
O3560     Zr3563   2.486       .  S
O3561      C3562   1.288       .  A
O3561     Zr3590   2.427       .  S
Zr3563     O3564   2.428       .  S
Zr3563     O3565   2.435       .  S
Zr3563     O3570   2.381       .  S
Zr3563     O3593   2.388       .  S
O3565      H3610   0.990       .  S
Zr3566     O3567   2.436       .  S
Zr3566     O3568   2.421       .  S
Zr3566     O3570   2.384       .  S
Zr3566     O3596   2.393       .  S
O3567      H3608   0.989       .  S
O3567      H3611   0.990       .  S
O3569     Zr3589   2.371       .  S
O3570     Zr3590   2.383       .  S
O3570      H3597   0.966       .  S
O3571      C3573   1.299       .  A
O3572      C3573   1.286       .  A
O3572     Zr3590   2.414       .  S
O3574      C3576   1.298       .  A
O3574     Zr3586   2.513   1_565  S
O3575      C3576   1.283       .  A
O3575     Zr3589   2.400       .  S
O3577      C3579   1.291       .  A
O3578      C3579   1.285       .  A
O3578     Zr3590   2.418       .  S
O3580      C3582   1.293       .  A
O3580     Zr3583   2.480   1_565  S
O3581      C3582   1.289       .  A
O3581     Zr3589   2.434       .  S
Zr3583     O3584   2.433       .  S
Zr3583     O3585   2.432       .  S
Zr3583     O3592   2.400   1_545  S
Zr3583     O3595   2.385   1_545  S
O3584      H3609   0.990   1_545  S
Zr3586     O3587   2.434       .  S
Zr3586     O3588   2.428       .  S
Zr3586     O3592   2.389   1_545  S
Zr3586     O3594   2.382   1_545  S
O3587      H3603   0.990       .  S
O3588      H3612   0.990       .  S
Zr3589     O3592   2.379       .  S
Zr3589     O3594   2.376       .  S
Zr3589     O3595   2.383       .  S
Zr3590     O3591   2.383       .  S
Zr3590     O3593   2.376       .  S
Zr3590     O3596   2.382       .  S
O3591      H3599   0.965       .  S
O3594      H3598   0.966       .  S
O3595      H3600   0.965       .  S
C3613      C3614   1.403       .  A
C3613      C3618   1.402       .  A
C3613      H3620   1.081       .  S
C3614      C3615   1.408       .  A
C3615      N3622   1.427       .  S
C3615      C3616   1.397       .  A
C3616      C3617   1.399       .  A
C3616      H3621   1.084       .  S
C3617      C3618   1.399       .  A
C3618      N3619   1.426       .  S
N3619      O3623   1.258       .  A
N3619      O3624   1.262       .  A
N3622      O3626   1.261       .  A
N3622      O3625   1.261       .  A
C3627      C3628   1.405       .  A
C3627      C3632   1.393       .  A
C3627      H3634   1.083       .  S
C3628      C3629   1.407       .  A
C3629      N3636   1.428       .  S
C3629      C3630   1.400       .  A
C3630      C3631   1.406       .  A
C3630      H3635   1.084       .  S
C3631      C3632   1.400       .  A
C3632      N3633   1.427       .  S
N3633      O3637   1.261       .  A
N3633      O3638   1.261       .  A
N3636      O3640   1.262       .  A
N3636      O3639   1.262       .  A
C3641      C3642   1.396       .  A
C3641      C3646   1.395       .  A
C3641      H3648   1.084       .  S
C3642      C3643   1.415       .  A
C3643      N3650   1.429       .  S
C3643      C3644   1.392       .  A
C3644      C3645   1.391       .  A
C3644      H3649   1.084       .  S
C3645      C3646   1.401       .  A
C3646      N3647   1.418       .  S
N3647      O3651   1.262       .  A
N3647      O3652   1.259       .  A
N3650      O3654   1.261   1_655  A
N3650      O3653   1.262       .  A
C3655      C3656   1.401       .  A
C3655      C3660   1.396       .  A
C3655      H3662   1.084       .  S
C3656      C3657   1.403       .  A
C3657      N3664   1.428       .  S
C3657      C3658   1.392       .  A
C3658      C3659   1.404       .  A
C3658      H3663   1.085       .  S
C3659      C3660   1.403       .  A
C3660      N3661   1.423       .  S
N3661      O3665   1.259       .  A
N3661      O3666   1.262       .  A
N3664      O3668   1.262       .  A
N3664      O3667   1.262       .  A
C3669      C3670   1.390       .  A
C3669      C3674   1.400       .  A
C3669      H3676   1.083       .  S
C3670      C3671   1.406       .  A
C3671      N3678   1.421       .  S
C3671      C3672   1.392       .  A
C3672      C3673   1.391       .  A
C3672      H3677   1.084       .  S
C3673      C3674   1.421       .  A
C3674      N3675   1.439       .  S
N3675      O3679   1.263       .  A
N3675      O3680   1.259       .  A
N3678      O3682   1.261       .  A
N3678      O3681   1.261       .  A
C3683      C3684   1.387       .  A
C3683      C3688   1.389       .  A
C3683      H3690   1.084       .  S
C3684      C3685   1.403       .  A
C3685      N3692   1.412       .  S
C3685      C3686   1.392       .  A
C3686      C3687   1.391       .  A
C3686      H3691   1.084       .  S
C3687      C3688   1.418       .  A
C3688      N3689   1.423       .  S
N3689      O3693   1.259       .  A
N3689      O3694   1.261       .  A
N3692      O3696   1.256       .  A
N3692      O3695   1.260       .  A
C3697      C3698   1.388       .  A
C3697      C3702   1.392       .  A
C3697      H3704   1.084       .  S
C3698      C3699   1.415       .  A
C3699      N3706   1.423       .  S
C3699      C3700   1.390       .  A
C3700      C3701   1.388       .  A
C3700      H3705   1.084       .  S
C3701      C3702   1.410       .  A
C3702      N3703   1.417       .  S
N3703      O3707   1.257       .  A
N3703      O3708   1.258       .  A
N3706      O3710   1.259       .  A
N3706      O3709   1.259       .  A
C3711      C3712   1.412       .  A
C3711      C3716   1.411       .  A
C3711      H3718   1.083       .  S
C3712      C3713   1.395       .  A
C3713      N3720   1.427       .  S
C3713      C3714   1.390       .  A
C3714      C3715   1.406       .  A
C3714      H3719   1.076       .  S
C3715      C3716   1.412       .  A
C3716      N3717   1.445       .  S
N3717      O3721   1.262       .  A
N3717      O3722   1.263       .  A
N3720      O3724   1.260       .  A
N3720      O3723   1.262       .  A
C3725      C3726   1.400       .  A
C3725      C3730   1.393       .  A
C3725      H3732   1.072       .  S
C3726      C3727   1.418       .  A
C3727      N3734   1.428       .  S
C3727      C3728   1.391       .  A
C3728      C3729   1.387       .  A
C3728      H3733   1.084       .  S
C3729      C3730   1.406       .  A
C3730      N3731   1.433       .  S
N3731      O3735   1.261       .  A
N3731      O3736   1.262       .  A
N3734      O3738   1.259       .  A
N3734      O3737   1.259       .  A
C3739      C3740   1.388       .  A
C3739      C3744   1.395       .  A
C3739      H3746   1.084       .  S
C3740      C3741   1.408       .  A
C3741      N3748   1.418       .  S
C3741      C3742   1.391       .  A
C3742      C3743   1.390       .  A
C3742      H3747   1.079       .  S
C3743      C3744   1.418       .  A
C3744      N3745   1.422       .  S
N3745      O3749   1.260       .  A
N3745      O3750   1.261       .  A
N3748      O3752   1.260       .  A
N3748      O3751   1.262       .  A
C3753      C3754   1.407       .  A
C3753      C3758   1.398       .  A
C3753      H3760   1.081       .  S
C3754      C3755   1.398       .  A
C3755      N3762   1.411       .  S
C3755      C3756   1.386       .  A
C3756      C3757   1.394       .  A
C3756      H3761   1.085       .  S
C3757      C3758   1.401       .  A
C3758      N3759   1.427       .  S
N3759      O3763   1.261       .  A
N3759      O3764   1.261       .  A
N3762      O3766   1.257       .  A
N3762      O3765   1.262       .  A
C3767      C3768   1.399       .  A
C3767      C3772   1.402       .  A
C3767      H3774   1.084       .  S
C3768      C3769   1.410       .  A
C3769      N3776   1.425       .  S
C3769      C3770   1.383       .  A
C3770      C3771   1.390       .  A
C3770      H3775   1.084       .  S
C3771      C3772   1.409       .  A
C3772      N3773   1.422       .  S
N3773      O3777   1.259       .  A
N3773      O3778   1.260       .  A
N3776      O3780   1.259       .  A
N3776      O3779   1.260       .  A
O3781      C3783   1.294       .  A
O3782      C3783   1.285       .  A
O3782     Zr3819   2.408       .  S
C3783      C3854   1.492       .  S
O3784      C3786   1.296       .  A
O3784     Zr3796   2.495   1_556  S
O3785      C3786   1.283       .  A
O3785     Zr3820   2.404       .  S
C3786      C3992   1.492       .  S
O3787      C3789   1.296       .  A
O3788      C3789   1.281       .  A
O3788     Zr3819   2.392       .  S
C3789      C3971   1.499       .  S
O3790      C3792   1.301       .  A
O3790     Zr3793   2.524       .  S
O3791      C3792   1.281       .  A
O3791     Zr3820   2.395       .  S
C3792      C3865   1.507       .  S
Zr3793     O3794   2.418   1_556  S
Zr3793     O3795   2.438       .  S
Zr3793     O3800   2.385       .  S
Zr3793     O3823   2.375       .  S
O3795      H3840   0.990   1_556  S
Zr3796     O3797   2.421       .  S
Zr3796     O3798   2.435       .  S
Zr3796     O3800   2.397   1_554  S
Zr3796     O3826   2.383   1_554  S
O3797      H3838   0.990   1_554  S
O3797      H3841   0.989       .  S
O3799     Zr3819   2.373       .  S
O3800     Zr3820   2.383       .  S
O3800      H3827   0.967       .  S
O3801      C3803   1.291       .  A
O3802      C3803   1.285       .  A
O3802     Zr3820   2.416       .  S
C3803      C3982   1.476       .  S
O3804      C3806   1.290       .  A
O3804     Zr3816   2.466       .  S
O3805      C3806   1.289       .  A
O3805     Zr3819   2.441       .  S
C3806      C3847   1.485       .  S
O3807      C3809   1.295       .  A
O3808      C3809   1.277       .  A
O3808     Zr3820   2.375       .  S
C3809      C3858   1.478       .  S
O3810      C3812   1.294       .  A
O3810     Zr3813   2.489       .  S
O3811      C3812   1.283       .  A
O3811     Zr3819   2.406       .  S
C3812      C3975   1.486       .  S
Zr3813     O3814   2.437       .  S
Zr3813     O3815   2.433       .  S
Zr3813     O3825   2.371       .  S
Zr3813     O3822   2.273       .  S
O3814      H3839   0.990       .  S
Zr3816     O3817   2.435       .  S
Zr3816     O3818   2.428       .  S
Zr3816     O3824   2.390       .  S
Zr3816     O3822   2.280       .  S
O3817      H3833   0.990       .  S
O3818      H3842   0.990       .  S
Zr3819     O3824   2.380       .  S
Zr3819     O3825   2.383       .  S
Zr3819     O3822   2.251       .  S
Zr3820     O3821   2.384       .  S
Zr3820     O3823   2.378       .  S
Zr3820     O3826   2.378       .  S
O3821      H3829   0.966       .  S
O3824      H3828   0.965       .  S
O3825      H3830   0.966       .  S
N3843      C3847   1.360       .  A
N3843      C3844   1.362       .  A
N3843      C4311   1.428       .  S
C3844      C3907   1.487       .  S
C3844      C3845   1.379       .  A
C3845      C3846   1.375       .  A
C3845      H3848   1.082       .  S
C3846      C3847   1.379       .  A
C3846      H3849   1.078       .  S
N3850      C3854   1.366       .  A
N3850      C3851   1.362       .  A
N3850      C4297   1.425       .  S
C3851      C3916   1.484       .  S
C3851      C3852   1.381       .  A
C3852      C3853   1.357       .  A
C3852      H3855   1.082       .  S
C3853      C3854   1.382       .  A
C3853      H3856   1.083       .  S
N3857      C3861   1.357       .  A
N3857      C3858   1.355       .  A
N3857      C4280   1.427       .  S
C3858      C3859   1.381       .  A
C3859      C3860   1.364       .  A
C3859      H3862   1.080       .  S
C3860      C3861   1.383       .  A
C3860      H3863   1.083       .  S
C3861      C3930   1.477       .  S
N3864      C3868   1.365       .  A
N3864      C3865   1.364       .  A
N3864      C4269   1.414       .  S
C3865      C3866   1.381       .  A
C3866      C3867   1.368       .  A
C3866      H3869   1.083       .  S
C3867      C3868   1.384       .  A
C3867      H3870   1.082       .  S
C3868      C3933   1.508       .  S
N3871      C3876   1.356   1_554  A
N3871      H3903   1.035       .  S
N3872      C3880   1.348       .  A
N3873      C3878   1.347   1_554  A
N3873      H3904   1.033       .  S
N3874      C3882   1.345       .  A
C3875      C3883   1.382       .  A
C3875      C3891   1.410       .  A
C3876      C3892   1.413       .  A
C3876      C3884   1.381       .  A
C3877      C3885   1.386       .  A
C3877      C3894   1.416       .  A
C3878      C3893   1.405       .  A
C3878      C3886   1.385       .  A
C3879      C3891   1.408       .  A
C3879      C3887   1.383       .  A
C3880      C3894   1.412       .  A
C3880      C3888   1.388       .  A
C3881      C3889   1.384       .  A
C3881      C3892   1.406       .  A
C3882      C3890   1.378       .  A
C3882      C3893   1.401       .  A
C3883      H3895   1.081       .  S
C3884      H3896   1.082       .  S
C3885      H3897   1.081       .  S
C3886      H3898   1.080       .  S
C3887      H3899   1.081       .  S
C3888      H3900   1.083       .  S
C3889      H3901   1.080       .  S
C3890      H3902   1.081       .  S
C3891      C4294   1.482       .  S
C3892      C4266   1.486       .  S
C3893      C4283   1.477       .  S
C3894      C4308   1.484       .  S
O3905      C3907   1.294       .  A
O3906      C3907   1.286       .  A
O3906     Zr3943   2.431       .  S
O3908      C3910   1.293       .  A
O3908     Zr3920   2.485       .  S
O3909      C3910   1.290       .  A
O3909     Zr3944   2.437       .  S
C3910      C4054   1.501       .  S
O3911      C3913   1.292       .  A
O3912      C3913   1.287       .  A
O3912     Zr3943   2.422       .  S
C3913      C4030   1.492       .  S
O3914      C3916   1.294       .  A
O3914     Zr3917   2.488   1_655  S
O3915      C3916   1.278       .  A
O3915     Zr3944   2.374       .  S
Zr3917     O3918   2.424   1_455  S
Zr3917     O3919   2.434       .  S
Zr3917     O3924   2.384   1_455  S
Zr3917     O3947   2.373   1_455  S
O3919      H3964   0.990       .  S
Zr3920     O3922   2.433       .  S
Zr3920     O3924   2.387       .  S
Zr3920     O3950   2.287       .  S
O3923     Zr3943   2.262       .  S
O3924     Zr3944   2.379       .  S
O3924      H3951   0.966       .  S
O3925      C3927   1.291       .  A
O3926      C3927   1.286       .  A
O3926     Zr3944   2.425       .  S
C3927      C4037   1.483       .  S
O3928      C3930   1.295       .  A
O3928     Zr3940   2.486       .  S
O3929      C3930   1.279       .  A
O3929     Zr3943   2.380       .  S
O3931      C3933   1.302       .  A
O3932      C3933   1.281       .  A
O3932     Zr3944   2.392       .  S
O3934      C3936   1.294       .  A
O3934     Zr3937   2.493       .  S
O3935      C3936   1.287       .  A
O3935     Zr3943   2.425       .  S
C3936      C4044   1.502       .  S
Zr3937     O3938   2.433       .  S
Zr3937     O3939   2.435       .  S
Zr3937     O3946   2.379       .  S
Zr3937     O3949   2.374       .  S
O3938      H3963   0.990       .  S
Zr3940     O3941   2.434       .  S
Zr3940     O3942   2.422       .  S
Zr3940     O3946   2.394       .  S
Zr3940     O3948   2.403       .  S
O3941      H3957   0.990       .  S
O3942      H3966   0.989       .  S
Zr3943     O3946   2.384       .  S
Zr3943     O3948   2.394       .  S
Zr3943     O3949   2.374       .  S
Zr3944     O3945   2.384       .  S
Zr3944     O3947   2.376       .  S
Zr3944     O3950   2.261       .  S
O3945      H3953   0.966       .  S
O3948      H3952   0.966       .  S
O3949      H3954   0.965       .  S
N3967      C3971   1.369       .  A
N3967      C3968   1.360       .  A
N3967      C4252   1.433       .  S
C3968      C4093   1.481       .  S
C3968      C3969   1.378       .  A
C3969      C3970   1.360       .  A
C3969      H3972   1.081       .  S
C3970      C3971   1.386       .  A
C3970      H3973   1.083       .  S
N3974      C3978   1.362       .  A
N3974      C3975   1.360       .  A
N3974      C4241   1.426       .  S
C3975      C3976   1.377       .  A
C3976      C3977   1.369       .  A
C3976      H3979   1.076       .  S
C3977      C3978   1.376       .  A
C3977      H3980   1.073       .  S
C3978      C4102   1.489       .  S
N3981      C3985   1.359       .  A
N3981      C3982   1.355       .  A
N3981      C4224   1.429       .  S
C3982      C3983   1.379       .  A
C3983      C3984   1.372       .  A
C3983      H3986   1.074       .  S
C3984      C3985   1.380       .  A
C3984      H3987   1.083       .  S
C3985      C4119   1.479       .  S
N3988      C3992   1.361       .  A
N3988      C3989   1.365       .  A
N3988      C4210   1.427       .  S
C3989      C4116   1.496       .  S
C3989      C3990   1.385       .  A
C3990      C3991   1.367       .  A
C3990      H3993   1.083       .  S
C3991      C3992   1.380       .  A
C3991      H3994   1.083       .  S
N3995      C3999   1.356   1_545  A
N3995      H4027   1.035       .  S
N3996      C4004   1.347   1_554  A
N3997      C4001   1.344   1_545  A
N3997      H4028   1.038       .  S
N3998      C4006   1.350   1_554  A
C3999      C4007   1.383       .  A
C3999      C4015   1.414       .  A
C4000      C4016   1.409       .  A
C4000      C4008   1.386       .  A
C4001      C4009   1.384       .  A
C4001      C4018   1.397       .  A
C4002      C4017   1.397       .  A
C4002      C4010   1.381       .  A
C4003      C4015   1.411       .  A
C4003      C4011   1.387       .  A
C4004      C4018   1.401       .  A
C4004      C4012   1.374       .  A
C4005      C4013   1.387       .  A
C4005      C4016   1.407       .  A
C4006      C4014   1.385       .  A
C4006      C4017   1.410       .  A
C4007      H4019   1.076       .  S
C4008      H4020   1.083       .  S
C4009      H4021   1.080       .  S
C4010      H4022   1.081       .  S
C4011      H4023   1.081       .  S
C4012      H4024   1.077       .  S
C4013      H4025   1.081       .  S
C4014      H4026   1.078       .  S
C4015      C4255   1.492       .  S
C4016      C4238   1.480       .  S
C4017      C4227   1.481       .  S
C4018      C4213   1.476       .  S
N4029      C4033   1.358       .  A
N4029      C4030   1.367       .  A
N4029      C4196   1.427       .  S
C4030      C4031   1.379       .  A
C4031      C4032   1.373       .  A
C4031      H4034   1.081       .  S
C4032      C4033   1.376       .  A
C4032      H4035   1.076       .  S
C4033      C4122   1.489       .  S
N4036      C4040   1.357       .  A
N4036      C4037   1.356       .  A
N4036      C4185   1.423       .  S
C4037      C4038   1.379       .  A
C4038      C4039   1.375       .  A
C4038      H4041   1.076       .  S
C4039      C4040   1.375       .  A
C4039      H4042   1.079       .  S
C4040      C4096   1.480       .  S
N4043      C4047   1.370       .  A
N4043      C4044   1.370       .  A
N4043      C4171   1.429       .  S
C4044      C4045   1.381       .  A
C4045      C4046   1.365       .  A
C4045      H4048   1.083       .  S
C4046      C4047   1.383       .  A
C4046      H4049   1.081       .  S
C4047      C4113   1.508       .  S
N4050      C4054   1.368       .  A
N4050      C4051   1.367       .  A
N4050      C4154   1.433       .  S
C4051      C4099   1.501       .  S
C4051      C4052   1.384       .  A
C4052      C4053   1.373       .  A
C4052      H4055   1.083       .  S
C4053      C4054   1.384       .  A
C4053      H4056   1.083       .  S
N4057      C4062   1.349       .  A
N4057      H4089   1.034       .  S
N4058      C4065   1.348   1_545  A
N4059      C4064   1.355       .  A
N4059      H4090   1.034       .  S
N4060      C4067   1.353   1_545  A
C4061      C4069   1.381       .  A
C4061      C4077   1.404       .  A
C4062      C4078   1.411       .  A
C4062      C4070   1.388       .  A
C4063      C4071   1.384       .  A
C4063      C4080   1.412       .  A
C4064      C4079   1.416       .  A
C4064      C4072   1.388       .  A
C4065      C4077   1.404       .  A
C4065      C4073   1.381       .  A
C4066      C4080   1.404       .  A
C4066      C4074   1.388       .  A
C4067      C4075   1.380       .  A
C4067      C4078   1.412       .  A
C4068      C4076   1.387       .  A
C4068      C4079   1.415       .  A
C4069      H4081   1.081       .  S
C4070      H4082   1.082       .  S
C4071      H4083   1.083       .  S
C4072      H4084   1.082       .  S
C4073      H4085   1.081       .  S
C4074      H4086   1.081       .  S
C4075      H4087   1.076       .  S
C4076      H4088   1.082       .  S
C4077      C4157   1.478       .  S
C4078      C4199   1.487       .  S
C4079      C4168   1.486       .  S
C4080      C4182   1.477       .  S
O4091      C4093   1.296       .  A
O4092      C4093   1.278       .  A
O4092     Zr4129   2.378       .  S
O4094      C4096   1.291       .  A
O4094     Zr4106   2.474       .  S
O4095      C4096   1.286       .  A
O4095     Zr4130   2.419       .  S
O4097      C4099   1.294       .  A
O4098      C4099   1.288       .  A
O4098     Zr4129   2.433       .  S
O4100      C4102   1.294       .  A
O4100     Zr4103   2.483       .  S
O4101      C4102   1.286       .  A
O4101     Zr4130   2.420       .  S
Zr4103     O4104   2.425       .  S
Zr4103     O4105   2.437       .  S
Zr4103     O4110   2.376       .  S
Zr4103     O4133   2.389       .  S
O4105      H4150   0.990       .  S
Zr4106     O4107   2.436       .  S
Zr4106     O4108   2.421       .  S
Zr4106     O4110   2.384       .  S
Zr4106     O4136   2.395       .  S
O4107      H4148   0.990       .  S
O4107      H4151   0.990       .  S
O4109     Zr4129   2.370       .  S
O4110     Zr4130   2.381       .  S
O4110      H4137   0.966       .  S
O4111      C4113   1.299       .  A
O4112      C4113   1.286       .  A
O4112     Zr4130   2.417       .  S
O4114      C4116   1.297       .  A
O4114     Zr4126   2.508   1_565  S
O4115      C4116   1.281       .  A
O4115     Zr4129   2.392       .  S
O4117      C4119   1.293       .  A
O4118      C4119   1.284       .  A
O4118     Zr4130   2.412       .  S
O4120      C4122   1.294       .  A
O4120     Zr4123   2.482   1_565  S
O4121      C4122   1.287       .  A
O4121     Zr4129   2.428       .  S
Zr4123     O4124   2.426       .  S
Zr4123     O4125   2.433       .  S
Zr4123     O4135   2.383   1_545  S
Zr4123     O4132   2.293   1_545  S
O4124      H4149   0.990       .  S
Zr4126     O4127   2.435       .  S
Zr4126     O4128   2.431       .  S
Zr4126     O4134   2.385   1_545  S
Zr4126     O4132   2.287   1_545  S
O4127      H4143   0.990       .  S
O4128      H4152   0.990       .  S
Zr4129     O4134   2.378       .  S
Zr4129     O4135   2.384       .  S
Zr4129     O4132   2.265       .  S
Zr4130     O4131   2.386       .  S
Zr4130     O4133   2.380       .  S
Zr4130     O4136   2.385       .  S
O4131      H4139   0.965       .  S
O4134      H4138   0.966       .  S
O4135      H4140   0.965       .  S
C4153      C4154   1.404       .  A
C4153      C4158   1.402       .  A
C4153      H4160   1.080       .  S
C4154      C4155   1.405       .  A
C4155      N4162   1.426       .  S
C4155      C4156   1.396       .  A
C4156      C4157   1.399       .  A
C4156      H4161   1.084       .  S
C4157      C4158   1.399       .  A
C4158      N4159   1.425       .  S
N4159      O4163   1.258       .  A
N4159      O4164   1.261       .  A
N4162      O4166   1.261       .  A
N4162      O4165   1.262       .  A
C4167      C4168   1.405       .  A
C4167      C4172   1.394       .  A
C4167      H4174   1.083       .  S
C4168      C4169   1.406       .  A
C4169      N4176   1.427       .  S
C4169      C4170   1.398       .  A
C4170      C4171   1.405       .  A
C4170      H4175   1.084       .  S
C4171      C4172   1.400       .  A
C4172      N4173   1.427       .  S
N4173      O4177   1.261       .  A
N4173      O4178   1.261       .  A
N4176      O4180   1.262       .  A
N4176      O4179   1.262       .  A
C4181      C4182   1.396       .  A
C4181      C4186   1.395       .  A
C4181      H4188   1.084       .  S
C4182      C4183   1.415       .  A
C4183      N4190   1.429       .  S
C4183      C4184   1.391       .  A
C4184      C4185   1.391       .  A
C4184      H4189   1.084       .  S
C4185      C4186   1.402       .  A
C4186      N4187   1.418       .  S
N4187      O4191   1.262       .  A
N4187      O4192   1.258       .  A
N4190      O4194   1.261       .  A
N4190      O4193   1.262       .  A
C4195      C4196   1.403       .  A
C4195      C4200   1.401       .  A
C4195      H4202   1.084       .  S
C4196      C4197   1.400       .  A
C4197      N4204   1.428       .  S
C4197      C4198   1.390       .  A
C4198      C4199   1.407       .  A
C4198      H4203   1.085       .  S
C4199      C4200   1.411       .  A
C4200      N4201   1.428       .  S
N4201      O4205   1.259       .  A
N4201      O4206   1.263       .  A
N4204      O4208   1.262       .  A
N4204      O4207   1.262       .  A
C4209      C4210   1.390       .  A
C4209      C4214   1.401       .  A
C4209      H4216   1.083       .  S
C4210      C4211   1.405       .  A
C4211      N4218   1.418       .  S
C4211      C4212   1.390       .  A
C4212      C4213   1.390       .  A
C4212      H4217   1.083       .  S
C4213      C4214   1.422       .  A
C4214      N4215   1.439       .  S
N4215      O4219   1.263       .  A
N4215      O4220   1.259       .  A
N4218      O4222   1.261       .  A
N4218      O4221   1.260       .  A
C4223      C4224   1.387       .  A
C4223      C4228   1.389       .  A
C4223      H4230   1.084       .  S
C4224      C4225   1.405       .  A
C4225      N4232   1.413       .  S
C4225      C4226   1.392       .  A
C4226      C4227   1.390       .  A
C4226      H4231   1.084       .  S
C4227      C4228   1.418       .  A
C4228      N4229   1.423       .  S
N4229      O4233   1.259       .  A
N4229      O4234   1.261       .  A
N4232      O4236   1.256       .  A
N4232      O4235   1.260       .  A
C4237      C4238   1.389       .  A
C4237      C4242   1.392       .  A
C4237      H4244   1.084       .  S
C4238      C4239   1.415       .  A
C4239      N4246   1.423       .  S
C4239      C4240   1.390       .  A
C4240      C4241   1.387       .  A
C4240      H4245   1.084       .  S
C4241      C4242   1.409       .  A
C4242      N4243   1.416       .  S
N4243      O4247   1.258       .  A
N4243      O4248   1.258       .  A
N4246      O4250   1.258       .  A
N4246      O4249   1.259       .  A
C4251      C4252   1.412       .  A
C4251      C4256   1.410       .  A
C4251      H4258   1.083       .  S
C4252      C4253   1.394       .  A
C4253      N4260   1.427       .  S
C4253      C4254   1.389       .  A
C4254      C4255   1.406       .  A
C4254      H4259   1.075       .  S
C4255      C4256   1.413       .  A
C4256      N4257   1.446       .  S
N4257      O4261   1.263       .  A
N4257      O4262   1.263       .  A
N4260      O4264   1.261       .  A
N4260      O4263   1.262       .  A
C4265      C4266   1.400       .  A
C4265      C4270   1.395       .  A
C4265      H4272   1.074       .  S
C4266      C4267   1.413       .  A
C4267      N4274   1.422       .  S
C4267      C4268   1.388       .  A
C4268      C4269   1.384       .  A
C4268      H4273   1.084       .  S
C4269      C4270   1.406       .  A
C4270      N4271   1.432       .  S
N4271      O4275   1.261       .  A
N4271      O4276   1.262       .  A
N4274      O4278   1.259       .  A
N4274      O4277   1.260       .  A
C4279      C4280   1.388       .  A
C4279      C4284   1.393       .  A
C4279      H4286   1.084       .  S
C4280      C4281   1.408       .  A
C4281      N4288   1.419       .  S
C4281      C4282   1.391       .  A
C4282      C4283   1.387       .  A
C4282      H4287   1.078       .  S
C4283      C4284   1.415       .  A
C4284      N4285   1.422       .  S
N4285      O4289   1.261       .  A
N4285      O4290   1.261       .  A
N4288      O4292   1.260       .  A
N4288      O4291   1.262       .  A
C4293      C4294   1.404       .  A
C4293      C4298   1.398       .  A
C4293      H4300   1.081       .  S
C4294      C4295   1.396       .  A
C4295      N4302   1.410       .  S
C4295      C4296   1.387       .  A
C4296      C4297   1.394       .  A
C4296      H4301   1.084       .  S
C4297      C4298   1.403       .  A
C4298      N4299   1.426       .  S
N4299      O4303   1.261       .  A
N4299      O4304   1.261       .  A
N4302      O4306   1.257       .  A
N4302      O4305   1.262       .  A
C4307      C4308   1.398       .  A
C4307      C4312   1.401       .  A
C4307      H4314   1.084       .  S
C4308      C4309   1.411       .  A
C4309      N4316   1.423       .  S
C4309      C4310   1.385       .  A
C4310      C4311   1.389       .  A
C4310      H4315   1.084       .  S
C4311      C4312   1.407       .  A
C4312      N4313   1.420       .  S
N4313      O4317   1.259       .  A
N4313      O4318   1.260       .  A
N4316      O4320   1.258       .  A
N4316      O4319   1.259       .  A
