geometry optimzed in LAMMPS
_audit_creation_date              2020-11-30 
_audit_creation_method            'lammps2cif' 
_symmetry_space_group_name_H-M    'P1' 
_symmetry_Int_Tables_number       1 
_symmetry_cell_setting            triclinic 
loop_ 
_symmetry_equiv_pos_as_xyz 
  x,y,z 
_cell_length_a                    43.03934805 
_cell_length_b                    42.94436712092939 
_cell_length_c                    76.11932652423678 
_cell_angle_alpha                 89.92206068415153 
_cell_angle_beta                  90.14697715670596 
_cell_angle_gamma                 119.9697712900447 
loop_ 
_atom_site_label 
_atom_site_type_symbol 
_atom_site_fract_x 
_atom_site_fract_y 
_atom_site_fract_z 
_atom_site_charge 
O1          O  0.10279567  0.30148750  0.32832948    -0.86900
C2          C  0.18528901  0.34287251  0.29338958     0.89200
Mg3        Mg  0.09999745  0.33183475  0.35017197     1.58100
O4          O  0.18642719  0.28122118  0.32352871    -0.86600
O5          O  0.10189201  0.25089589  0.32319026    -0.73900
C6          C  0.26214750  0.40544025  0.38806713     0.94200
O7          O  0.15003077  0.38285835  0.31540416    -0.73700
O8          O  0.23673867  0.41230968  0.38603234    -0.81200
Mg9        Mg  0.11360931  0.32725893  0.30301315     1.58000
C10         C  0.28404267  0.30842645  0.34877991     0.94100
O11         O  0.07599886  0.27551918  0.28784550    -0.79500
H12         H  0.16276344  0.23247960  0.33457051    -0.04800
C13         C  0.25035415  0.38786550  0.33690997     0.89100
O14         O  0.12287205  0.30624069  0.36890563    -0.74000
O15         O  0.15796322  0.31813600  0.30010254    -0.86800
O16         O  0.27070884  0.30390061  0.33339181    -0.79600
C17         C  0.22047118  0.27606792  0.28163490     0.94300
C18         C  0.07683908  0.25024117  0.27954300     0.94100
Mg19       Mg  0.22590673  0.32893298  0.36425469     1.58000
O20         O  0.26328704  0.38044215  0.37964415    -0.79500
O21         O  0.18973194  0.27341502  0.35180000    -0.73800
O22         O  0.18753496  0.26767780  0.28208629    -0.79600
O23         O  0.06658209  0.33676209  0.30564730    -0.81300
O24         O  0.15168494  0.38813260  0.38533120    -0.79600
C25         C  0.17925927  0.26118244  0.33639885     0.88500
O26         O  0.18137771  0.33796531  0.36713005    -0.86800
O27         O  0.23669514  0.35506645  0.33900233    -0.86900
O28         O  0.23773151  0.40565398  0.34431621    -0.73900
Mg29       Mg  0.14621421  0.26322282  0.30295769     1.58000
O30         O  0.24261646  0.29393370  0.29376377    -0.81300
H31         H  0.06671065  0.25508672  0.33934378    -0.05000
O32         O  0.15313274  0.37534638  0.34374237    -0.86600
H33         H  0.17722005  0.42394523  0.33253512    -0.04800
H34         H  0.15645608  0.29666590  0.38373593    -0.05000
C35         C  0.16052903  0.39524092  0.33079010     0.88500
C36         C  0.08927261  0.26873503  0.33054834     0.89100
C37         C  0.15394632  0.31332675  0.37381926     0.89200
H38         H  0.27303775  0.40160222  0.32819198    -0.05000
O39         O  0.21643499  0.35035180  0.29836721    -0.74000
Mg40       Mg  0.19314226  0.39293058  0.36445412     1.58000
H41         H  0.18260266  0.35936660  0.28343837    -0.05000
C42         C  0.05569807  0.34824534  0.31821461     0.94100
O43         O  0.09678828  0.36291324  0.37350569    -0.81300
C44         C  0.11888027  0.38019485  0.38576295     0.94200
O45         O  0.10223159  0.24332355  0.28153120    -0.81200
Mg46       Mg  0.23943657  0.32490826  0.31706585     1.58200
O47         O  0.06886890  0.35296438  0.33365899    -0.79600
O48         O  0.27318660  0.31961767  0.36149656    -0.81300
C49         C  0.33188402  0.14317914  0.18062985     0.03800
C50         C  0.33120768  0.17566222  0.18142091     0.03700
C51         C  0.34938460  0.20213547  0.16859747    -0.16800
C52         C  0.36843209  0.19680759  0.15514130     0.03800
C53         C  0.36962266  0.16466098  0.15452602     0.03700
C54         C  0.35125493  0.13806574  0.16723597    -0.16800
H55         H  0.35193795  0.11316962  0.16666502     0.05800
H56         H  0.34870018  0.22703676  0.16908836     0.05800
C57         C  0.86687453  0.17044674  0.17912457     0.03800
C58         C  0.83418938  0.13759187  0.17901528     0.03700
C59         C  0.80927281  0.13011582  0.16542593    -0.16800
C60         C  0.81620779  0.15505401  0.15191708     0.03800
C61         C  0.84872902  0.18823359  0.15214887     0.03700
C62         C  0.87377756  0.19554108  0.16570126    -0.16800
H63         H  0.89882411  0.22093625  0.16579369     0.05800
H64         H  0.78425961  0.10468226  0.16538059     0.05800
O65         O  0.24429585  0.86847288  0.33271021    -0.86900
C66         C  0.16846340  0.83975254  0.37064740     0.89200
Mg67       Mg  0.24397439  0.89576512  0.30900660     1.58100
O68         O  0.16097834  0.76905671  0.34427757    -0.86600
O69         O  0.24519664  0.82012358  0.34091948    -0.73900
C70         C  0.07718352  0.80377138  0.27837774     0.94200
O71         O  0.20124405  0.90808141  0.34390304    -0.73700
O72         O  0.10334459  0.83593844  0.27835934    -0.81200
Mg73       Mg  0.23857835  0.89087360  0.35704221     1.58000
C74         C  0.06184269  0.69469325  0.32441358     0.94100
O75         O  0.27750572  0.87904275  0.37289115    -0.79500
H76         H  0.18234486  0.74077253  0.33452232    -0.04800
C77         C  0.09700013  0.81027649  0.32917386     0.89100
O78         O  0.21771554  0.84316465  0.29333074    -0.74000
O79         O  0.19408542  0.83940795  0.36357089    -0.86800
O80         O  0.07745699  0.70803666  0.33892738    -0.79600
C81         C  0.13268986  0.74075461  0.38842472     0.94300
C82         C  0.27599503  0.85429933  0.38276344     0.94100
Mg83       Mg  0.11575781  0.76798967  0.30376814     1.58000
O84         O  0.07648187  0.77935885  0.28818471    -0.79500
O85         O  0.15333047  0.75113155  0.31683153    -0.73800
O86         O  0.16567388  0.76417922  0.38634175    -0.79600
O87         O  0.28529600  0.94605474  0.35051117    -0.81300
O88         O  0.18756030  0.89452798  0.27452405    -0.79600
C89         C  0.16591169  0.75286518  0.33215404     0.88500
O90         O  0.15991927  0.81949561  0.29715517    -0.86800
O91         O  0.10999692  0.79041128  0.32805874    -0.86900
O92         O  0.10863213  0.83853952  0.31994226    -0.73900
Mg93       Mg  0.20368003  0.79464542  0.36309037     1.58000
O94         O  0.10904384  0.73458682  0.37682924    -0.81300
H95         H  0.27816662  0.85450826  0.32226960    -0.05000
O96         O  0.19289455  0.88966327  0.31653594    -0.86600
H97         H  0.17209314  0.91846186  0.32629329    -0.04800
H98         H  0.18054376  0.79755299  0.28120591    -0.05000
C99         C  0.18834790  0.90616263  0.32863603     0.88500
C100        C  0.25703755  0.84837265  0.33163925     0.89100
C101        C  0.18557090  0.81932759  0.29000580     0.89200
H102        H  0.07587289  0.80395336  0.33857159    -0.05000
O103        O  0.13630591  0.81595049  0.36732769    -0.74000
Mg104      Mg  0.14988030  0.86396154  0.29774848     1.58000
H105        H  0.17353325  0.86163472  0.37938102    -0.05000
C106        C  0.29228494  0.96433466  0.33646018     0.94100
O107        O  0.24422665  0.92452305  0.28403850    -0.81300
C108        C  0.22041171  0.91837543  0.27252679     0.94200
O109        O  0.24963228  0.82229845  0.38254926    -0.81200
Mg110      Mg  0.10997188  0.76321006  0.35175423     1.58200
O111        O  0.27648563  0.95091388  0.32198097    -0.79600
O112        O  0.06928168  0.71290222  0.31033350    -0.81300
O113        O  0.64363739  0.76609285  0.33782466    -0.86900
C114        C  0.68449353  0.84665632  0.37357503     0.89200
Mg115      Mg  0.67382647  0.76584311  0.31545117     1.58100
O116        O  0.62040064  0.84610076  0.34458013    -0.86600
O117        O  0.59223644  0.76229148  0.34393932    -0.73900
C118        C  0.74173216  0.92834900  0.27996024     0.94200
O119        O  0.72518008  0.81477781  0.35029464    -0.73700
O120        O  0.74970866  0.90360741  0.28135964    -0.81200
Mg121      Mg  0.67054839  0.77623570  0.36286863     1.58000
C122        C  0.64096468  0.94144558  0.32099101     0.94100
O123        O  0.61985727  0.73672578  0.37821811    -0.79500
H124        H  0.57130618  0.82111492  0.33397618    -0.04800
C125        C  0.72531203  0.91410319  0.33055845     0.89100
O126        O  0.64588691  0.78716574  0.29743627    -0.74000
O127        O  0.65985835  0.81916995  0.36687151    -0.86800
O128        O  0.63821392  0.92753643  0.33605958    -0.79600
C129        C  0.61678364  0.87844702  0.38731299     0.94300
C130        C  0.59476826  0.73682528  0.38701776     0.94100
Mg131      Mg  0.66551467  0.88837087  0.30378560     1.58000
O132        O  0.71620087  0.92801018  0.28854625    -0.79500
O133        O  0.61104977  0.84984602  0.31649496    -0.73800
O134        O  0.60905102  0.84570729  0.38635146    -0.79600
O135        O  0.68248312  0.73094947  0.35898415    -0.81300
O136        O  0.72919465  0.82007250  0.28067818    -0.79600
C137        C  0.59974146  0.83860885  0.33193287     0.88500
O138        O  0.67665648  0.84573228  0.29969733    -0.86800
O139        O  0.69242226  0.89871159  0.32876046    -0.86900
O140        O  0.74406771  0.90317203  0.32273287    -0.73900
Mg141      Mg  0.60450018  0.80575132  0.36473132     1.58000
O142        O  0.63323508  0.90108927  0.37519438    -0.81300
H143        H  0.59756629  0.72879617  0.32700312    -0.05000
O144        O  0.71595043  0.81921082  0.32229376    -0.86600
H145        H  0.76501552  0.84396894  0.33292666    -0.04800
H146        H  0.63529311  0.82068945  0.28313631    -0.05000
C147        C  0.73657112  0.82644683  0.33492478     0.88500
C148        C  0.61075707  0.75120840  0.33597046     0.89100
C149        C  0.65234853  0.81824396  0.29283410     0.89200
H150        H  0.73829130  0.93677306  0.33939173    -0.05000
O151        O  0.69107295  0.87776742  0.36896232    -0.74000
Mg152      Mg  0.73219518  0.85961378  0.30214376     1.58000
H153        H  0.70174846  0.84416382  0.38313233    -0.05000
C154        C  0.69545320  0.72339989  0.34577644     0.94100
O155        O  0.70493268  0.76477283  0.29192706    -0.81300
C156        C  0.72221785  0.78754595  0.27998581     0.94200
O157        O  0.58703092  0.76174022  0.38560239    -0.81200
Mg158      Mg  0.66297840  0.89934264  0.35125454     1.58200
O159        O  0.69851509  0.73772786  0.33079608    -0.79600
O160        O  0.65341038  0.93340048  0.30774578    -0.81300
C161        C  0.86109085  0.68005234  0.18087789     0.03800
C162        C  0.82780583  0.67881474  0.18202245     0.03700
C163        C  0.80163921  0.66076636  0.16909034    -0.16800
C164        C  0.80806465  0.64378132  0.15503373     0.03800
C165        C  0.84122231  0.64484893  0.15384517     0.03700
C166        C  0.86754487  0.66301119  0.16676754    -0.16800
H167        H  0.89309112  0.66383031  0.16585479     0.05800
H168        H  0.77607648  0.65994846  0.16996881     0.05800
O169        O  0.45970104  0.02714285  0.00517919    -0.86900
C170        C  0.50113532  0.98244530  0.03881166     0.89200
Mg171      Mg  0.42565237  0.99900295  0.98325959     1.58100
O172        O  0.56389378  0.04482566  0.00899730    -0.86600
O173        O  0.51074083  0.07629443  0.01035274    -0.73900
C174        C  0.50885060  0.92292738  0.94361969     0.94200
O175        O  0.42397919  0.94453138  0.01711876    -0.73700
O176        O  0.47720886  0.91737415  0.94595981    -0.81200
Mg177      Mg  0.44519940  0.99973909  0.03015332     1.58000
C178        C  0.63159533  0.01731846  0.98189849     0.94100
O179        O  0.46116497  0.05106387  0.04579148    -0.79500
H180        H  0.58995348  0.09417660  0.99864700    -0.04800
C181        C  0.51762011  0.93904480  0.99480668     0.89100
O182        O  0.47363774  0.02443042  0.96438042    -0.74000
O183        O  0.49854950  0.00742042  0.03229098    -0.86800
O184        O  0.62383411  0.02129532  0.99759551    -0.79600
C185        C  0.60408410  0.04793967  0.05067907     0.94300
C186        C  0.48793472  0.07586492  0.05392302     0.94100
Mg187      Mg  0.55241890  0.99867449  0.96772938     1.58000
O188        O  0.53586571  0.94712060  0.95191097    -0.79500
O189        O  0.57396906  0.05404376  0.98074046    -0.73800
O190        O  0.57929841  0.05606867  0.05056777    -0.79600
O191        O  0.38884604  0.99157810  0.02832008    -0.81300
O192        O  0.41820308  0.94333010  0.94742128    -0.79600
C193        C  0.57681785  0.06552583  0.99637626     0.88500
O194        O  0.49927911  0.99150610  0.96563525    -0.86800
O195        O  0.53817469  0.97166462  0.99282335    -0.86900
O196        O  0.48688107  0.92277603  0.98754975    -0.73900
Mg197      Mg  0.54248408  0.06212698  0.02999756     1.58000
O198        O  0.60828063  0.03070499  0.03817162    -0.81300
H199        H  0.47157878  0.07457138  0.99477972    -0.05000
O200        O  0.43387182  0.95429878  0.98888543    -0.86600
H201        H  0.40793152  0.90475777  0.99901516    -0.04800
H202        H  0.51631084  0.03352190  0.94941068    -0.05000
C203        C  0.42099803  0.93336062  0.00142119     0.88500
C204        C  0.47992144  0.05981359  0.00322118     0.89100
C205        C  0.49710226  0.01681382  0.95925304     0.89200
H206        H  0.52564575  0.92411295  0.00331067    -0.05000
O207        O  0.52484990  0.97511291  0.03375317    -0.74000
Mg208      Mg  0.45504638  0.93701213  0.96788069     1.58000
H209        H  0.48212385  0.96581519  0.04874067    -0.05000
C210        C  0.36631278  0.98179107  0.01579471     0.94100
O211        O  0.39023502  0.96965848  0.95987846    -0.81300
C212        C  0.39385319  0.95206151  0.94740243     0.94200
O213        O  0.51978291  0.08182117  0.05175586    -0.81200
Mg214      Mg  0.57262180  0.00052403  0.01471820     1.58200
O215        O  0.37432888  0.97842955  0.00007361    -0.79600
O216        O  0.60871046  0.00658345  0.96949772    -0.81300
O217        O  0.54351406  0.56835457  0.99686375    -0.86900
C218        C  0.50412104  0.48803014  0.96065877     0.89200
Mg219      Mg  0.57293155  0.56788000  0.01963307     1.58100
O220        O  0.43963237  0.48862768  0.98876745    -0.86600
O221        O  0.49603804  0.57218533  0.99021730    -0.73900
C222        C  0.47538858  0.40504925  0.05382601     0.94200
O223        O  0.57586532  0.51882781  0.98478333    -0.73700
O224        O  0.50803553  0.42967723  0.05265489    -0.81200
Mg225      Mg  0.56057289  0.55791977  0.97202975     1.58000
C226        C  0.36325835  0.39291254  0.01143584     0.94100
O227        O  0.55041601  0.59817317  0.95659907    -0.79500
H228        H  0.41508996  0.51370390  0.99874668    -0.04800
C229        C  0.47546925  0.42007843  0.00316531     0.89100
O230        O  0.52280514  0.54659169  0.03694157    -0.74000
O231        O  0.50699229  0.51542529  0.96748930    -0.86800
O232        O  0.37506393  0.40684113  0.99644351    -0.79600
C233        C  0.40542759  0.45779527  0.94571825     0.94300
C234        C  0.52558727  0.59839400  0.94755520     0.94100
Mg235      Mg  0.44032683  0.44565765  0.02951771     1.58000
O236        O  0.45041417  0.40546773  0.04500732    -0.79500
O237        O  0.42510925  0.48465741  0.01659338    -0.73800
O238        O  0.43069158  0.49032778  0.94696592    -0.79600
O239        O  0.61758005  0.60246748  0.97649076    -0.81300
O240        O  0.57043015  0.51215570  0.05437630    -0.79600
C241        C  0.42583456  0.49606936  0.00110196     0.88500
O242        O  0.49411150  0.48809618  0.03405749    -0.86800
O243        O  0.45769558  0.43525762  0.00480451    -0.86900
O244        O  0.50489720  0.43095461  0.01127179    -0.73900
Mg245      Mg  0.46538550  0.52938226  0.96903845     1.58000
O246        O  0.39854837  0.43470444  0.95770907    -0.81300
H247        H  0.53410943  0.60533064  0.00757121    -0.05000
O248        O  0.56126925  0.51451761  0.01259621    -0.86600
H249        H  0.58573660  0.48946340  0.00250326    -0.04800
H250        H  0.47753281  0.51320909  0.05039538    -0.05000
C251        C  0.57504332  0.50716449  0.00022455     0.88500
C252        C  0.52533446  0.58313114  0.99850480     0.89100
C253        C  0.49742436  0.51557175  0.04102036     0.89200
H254        H  0.46629320  0.39768976  0.99418745    -0.05000
O255        O  0.47912190  0.45691692  0.96485972    -0.74000
Mg256      Mg  0.53553407  0.47375744  0.03230681     1.58000
H257        H  0.52418009  0.49057008  0.95134594    -0.05000
C258        C  0.63789827  0.61006341  0.98981813     0.94100
O259        O  0.60372665  0.56768450  0.04373258    -0.81300
C260        C  0.59650109  0.54424397  0.05561047     0.94200
O261        O  0.49295802  0.57358609  0.94858824    -0.81200
Mg262      Mg  0.42877174  0.43534523  0.98195246     1.58200
O263        O  0.62646441  0.59593509  0.00482324    -0.79600
O264        O  0.38319974  0.40095436  0.02494359    -0.81300
O265        O  0.02125651  0.45830770  0.99617492    -0.86900
C266        C  0.97634557  0.49019027  0.95839606     0.89200
Mg267      Mg  0.99286848  0.42984599  0.01937510     1.58100
O268        O  0.03894752  0.55876598  0.98598611    -0.86600
O269        O  0.07110204  0.50662336  0.98882653    -0.73900
C270        C  0.91759855  0.52084065  0.05032272     0.94200
O271        O  0.93922692  0.41978845  0.98399934    -0.73700
O272        O  0.91139075  0.48859262  0.04994385    -0.81200
Mg273      Mg  0.99420626  0.43735739  0.97148285     1.58000
C274        C  0.01430985  0.63296338  0.00673983     0.94100
O275        O  0.04555117  0.44969160  0.95635026    -0.79500
H276        H  0.08812191  0.58592541  0.99639755    -0.04800
C277        C  0.93343306  0.51785330  0.99983114     0.89100
O278        O  0.01884664  0.48147695  0.03572634    -0.74000
O279        O  0.00184886  0.48953912  0.96551442    -0.86800
O280        O  0.01714776  0.62040672  0.99210553    -0.79600
C281        C  0.04142236  0.59046003  0.94231702     0.94300
C282        C  0.06956095  0.47466045  0.94694270     0.94100
Mg283      Mg  0.99328451  0.55793366  0.02618959     1.58000
O284        O  0.94202607  0.54585048  0.04112310    -0.79500
O285        O  0.04815282  0.57504233  0.01369017    -0.73800
O286        O  0.05028850  0.56634421  0.94398256    -0.79600
O287        O  0.98567430  0.38174269  0.97753590    -0.81300
O288        O  0.93652375  0.42931061  0.05351070    -0.79600
C289        C  0.05957201  0.57402026  0.99843284     0.88500
O290        O  0.98512642  0.50573243  0.03202212    -0.86800
O291        O  0.96619316  0.53744422  0.00146944    -0.86900
O292        O  0.91625582  0.48889181  0.00850520    -0.73900
Mg293      Mg  0.05639192  0.53385367  0.96688428     1.58000
O294        O  0.02375884  0.59613685  0.95395371    -0.81300
H295        H  0.06841124  0.47081434  0.00705119    -0.05000
O296        O  0.94838257  0.43668359  0.01160649    -0.86600
H297        H  0.89919397  0.40877701  0.00127747    -0.04800
H298        H  0.02701384  0.52642626  0.04844369    -0.05000
C299        C  0.92776782  0.42097538  0.99922161     0.88500
C300        C  0.05404295  0.47787367  0.99767088     0.89100
C301        C  0.01055153  0.50523993  0.03930624     0.89200
H302        H  0.91921272  0.52503270  0.99041890    -0.05000
O303        O  0.96846456  0.51427278  0.96198701    -0.74000
Mg304      Mg  0.93060910  0.46156701  0.03051398     1.58000
H305        H  0.95955879  0.46898496  0.94933614    -0.05000
C306        C  0.97419725  0.36282711  0.99138881     0.94100
O307        O  0.96379482  0.39998590  0.04388891    -0.81300
C308        C  0.94580750  0.40555842  0.05538824     0.94200
O309        O  0.07536231  0.50678648  0.94724443    -0.81200
Mg310      Mg  0.99463791  0.56600848  0.97837580     1.58200
O311        O  0.97061580  0.37536317  0.00586806    -0.79600
O312        O  0.00273631  0.61386085  0.02051587    -0.81300
O313        O  0.30858682  0.10080108  0.67130488    -0.86900
C314        C  0.35041088  0.18024056  0.70782000     0.89200
Mg315      Mg  0.33731743  0.09994434  0.64857613     1.58100
O316        O  0.28749992  0.18210724  0.67891793    -0.86600
O317        O  0.25773999  0.09805844  0.67752714    -0.73900
C318        C  0.40695542  0.26291737  0.61342132     0.94200
O319        O  0.39006858  0.14862900  0.68330598    -0.73700
O320        O  0.41377243  0.23734795  0.61448590    -0.81200
Mg321      Mg  0.33565834  0.11026470  0.69616307     1.58000
C322        C  0.30936455  0.27820085  0.65628274     0.94100
O323        O  0.28454462  0.07079102  0.71129177    -0.79500
H324        H  0.23808689  0.15890677  0.66872706    -0.04800
C325        C  0.39272182  0.24829296  0.66461497     0.89100
O326        O  0.30931168  0.12250413  0.63139415    -0.74000
O327        O  0.32555705  0.15338015  0.70080870    -0.86800
O328        O  0.30698554  0.26388653  0.67118671    -0.79600
C329        C  0.28275284  0.21317408  0.72166253     0.94300
C330        C  0.25915443  0.07081521  0.71986791     0.94100
Mg331      Mg  0.33216671  0.22478964  0.63828380     1.58000
O332        O  0.38274186  0.26382275  0.62263390    -0.79500
O333        O  0.27762283  0.18722237  0.65109115    -0.73800
O334        O  0.27443633  0.18027144  0.72053114    -0.79600
O335        O  0.34732791  0.06498208  0.69176729    -0.81300
O336        O  0.38989861  0.15344219  0.61322806    -0.79600
C337        C  0.26656312  0.17569570  0.66650693     0.88500
O338        O  0.34133048  0.18103458  0.63373582    -0.86800
O339        O  0.35980644  0.23390441  0.66313097    -0.86900
O340        O  0.41047907  0.23686418  0.65621428    -0.73900
Mg341      Mg  0.27048854  0.14102010  0.69858215     1.58000
O342        O  0.30080365  0.23620602  0.70993493    -0.81300
H343        H  0.26219074  0.06421449  0.66048883    -0.05000
O344        O  0.38051527  0.15280363  0.65526388    -0.86600
H345        H  0.42969481  0.17742187  0.66577708    -0.04800
H346        H  0.29877706  0.15686213  0.61780399    -0.05000
C347        C  0.40125781  0.16002740  0.66786394     0.88500
C348        C  0.27575290  0.08647309  0.66951210     0.89100
C349        C  0.31617021  0.15386540  0.62707930     0.89200
H350        H  0.40661553  0.27057655  0.67359390    -0.05000
O351        O  0.35796198  0.21176539  0.70345760    -0.74000
Mg352      Mg  0.39636427  0.19332747  0.63521787     1.58000
H353        H  0.36707572  0.17681390  0.71738648    -0.05000
C354        C  0.35975722  0.05718307  0.67842473     0.94100
O355        O  0.36610901  0.09801720  0.62425826    -0.81300
C356        C  0.38195220  0.12068644  0.61206693     0.94200
O357        O  0.25201802  0.09616760  0.71876596    -0.81200
Mg358      Mg  0.33082023  0.23464382  0.68595666     1.58200
O359        O  0.36211035  0.07113215  0.66339011    -0.79600
O360        O  0.32156785  0.27063568  0.64278791    -0.81300
C361        C  0.16150035  0.35676464  0.84666543     0.03800
C362        C  0.19329385  0.35494278  0.84644713     0.03700
C363        C  0.19973876  0.33753491  0.83257868    -0.16800
C364        C  0.17494394  0.32174672  0.81887234     0.03800
C365        C  0.14300816  0.32334287  0.81904493     0.03700
C366        C  0.13655711  0.34086900  0.83294676    -0.16800
H367        H  0.11200673  0.34213205  0.83309008     0.05800
H368        H  0.22429591  0.33625571  0.83245576     0.05800
C369        C  0.17676004  0.84644174  0.84938685     0.03800
C370        C  0.14422783  0.81333683  0.84869665     0.03700
C371        C  0.11951703  0.80706422  0.83515756    -0.16800
C372        C  0.12688265  0.83301130  0.82216149     0.03800
C373        C  0.15966937  0.86568040  0.82262287     0.03700
C374        C  0.18420670  0.87224259  0.83626022    -0.16800
H375        H  0.20934279  0.89754619  0.83661280     0.05800
H376        H  0.09439664  0.78175642  0.83470794     0.05800
O377        O  0.89498150  0.21165072  0.67119949    -0.86900
C378        C  0.81683684  0.17941211  0.70819172     0.89200
Mg379      Mg  0.89522752  0.23786720  0.64715029     1.58100
O380        O  0.81430440  0.11028350  0.68227890    -0.86600
O381        O  0.89833005  0.16487869  0.67991428    -0.73900
C382        C  0.73066905  0.14106745  0.61481365     0.94200
O383        O  0.84724240  0.24704865  0.68092275    -0.73700
O384        O  0.75656879  0.17330710  0.61443322    -0.81200
Mg385      Mg  0.88594034  0.23306828  0.69502053     1.58000
C386        C  0.71611385  0.03332989  0.66136383     0.94100
O387        O  0.92599352  0.22453888  0.71142716    -0.79500
H388        H  0.83750256  0.08320936  0.67315303    -0.04800
C389        C  0.74830116  0.14823854  0.66551389     0.89100
O390        O  0.87193478  0.18495509  0.63181460    -0.74000
O391        O  0.84335039  0.18055706  0.70133964    -0.86800
O392        O  0.73127250  0.04670010  0.67597416    -0.79600
C393        C  0.78456112  0.08145985  0.72606170     0.94300
C394        C  0.92647927  0.20098210  0.72142287     0.94100
Mg395      Mg  0.77004580  0.10722205  0.64100629     1.58000
O396        O  0.73044072  0.11724947  0.62489565    -0.79500
O397        O  0.80821895  0.09197708  0.65492243    -0.73800
O398        O  0.81728404  0.10607703  0.72442997    -0.79600
O399        O  0.93060977  0.28925810  0.68885102    -0.81300
O400        O  0.84049827  0.23343101  0.61130302    -0.79600
C401        C  0.82044161  0.09444372  0.67040551     0.88500
O402        O  0.81367942  0.15929110  0.63457359    -0.86800
O403        O  0.76229345  0.12918930  0.66493871    -0.86900
O404        O  0.75942253  0.17610883  0.65600374    -0.73900
Mg405      Mg  0.85605528  0.13791121  0.70158171     1.58000
O406        O  0.76129829  0.07430123  0.71410816    -0.81300
H407        H  0.93137227  0.20027049  0.66161655    -0.05000
O408        O  0.84289809  0.22966698  0.65348923    -0.86600
H409        H  0.81847051  0.25569879  0.66237973    -0.04800
H410        H  0.83688164  0.13838020  0.61966573    -0.05000
C411        C  0.83586699  0.24493225  0.66529950     0.88500
C412        C  0.90941638  0.19301026  0.67062222     0.89100
C413        C  0.84040599  0.16010105  0.62813746     0.89200
H414        H  0.72660436  0.14147509  0.67461719    -0.05000
O415        O  0.78528704  0.15463555  0.70457629    -0.74000
Mg416      Mg  0.80168846  0.20248841  0.63421922     1.58000
H417        H  0.82054934  0.20080504  0.71695215    -0.05000
C418        C  0.93837115  0.30724769  0.67469697     0.94100
O419        O  0.89635258  0.26540106  0.62168324    -0.81300
C420        C  0.87322296  0.25792926  0.60963526     0.94200
O421        O  0.90148441  0.16821065  0.72145191    -0.81200
Mg422      Mg  0.76194774  0.10226433  0.68886886     1.58200
O423        O  0.92453528  0.29328196  0.65996455    -0.79600
O424        O  0.72393661  0.05164406  0.64730679    -0.81300
O425        O  0.76296563  0.63927967  0.66098641    -0.86900
C426        C  0.84527282  0.68282666  0.62547899     0.89200
Mg427      Mg  0.75882791  0.66917605  0.68278159     1.58100
O428        O  0.84988395  0.62277532  0.65541649    -0.86600
O429        O  0.76523414  0.59021412  0.65591999    -0.73900
C430        C  0.92076886  0.74678710  0.71998916     0.94200
O431        O  0.80763576  0.72078637  0.64766747    -0.73700
O432        O  0.89472321  0.75258180  0.71785706    -0.81200
Mg433      Mg  0.77282356  0.66464266  0.63552546     1.58000
C434        C  0.94785132  0.65344301  0.68062131     0.94100
O435        O  0.73640115  0.61213654  0.62057478    -0.79500
H436        H  0.82821908  0.57397249  0.66628232    -0.04800
C437        C  0.90975747  0.72959407  0.66858638     0.89100
O438        O  0.78325437  0.64520010  0.70160184    -0.74000
O439        O  0.81867268  0.65773632  0.63249772    -0.86800
O440        O  0.93497331  0.64881299  0.66511589    -0.79600
C441        C  0.88348319  0.61823712  0.61328027     0.94300
C442        C  0.73846129  0.58747480  0.61231374     0.94100
Mg443      Mg  0.88738288  0.67086385  0.69602237     1.58000
O444        O  0.92322424  0.72259043  0.71150951    -0.79500
O445        O  0.85314763  0.61500077  0.68366051    -0.73800
O446        O  0.85036963  0.60913278  0.61402887    -0.79600
O447        O  0.72447617  0.67205113  0.63820169    -0.81300
O448        O  0.80988917  0.72672338  0.71759244    -0.79600
C449        C  0.84349467  0.60273853  0.66821272     0.88500
O450        O  0.84147758  0.67790258  0.69894332    -0.86800
O451        O  0.89771546  0.69700568  0.67070668    -0.86900
O452        O  0.89591504  0.74618060  0.67609174    -0.73900
Mg453      Mg  0.80916870  0.60358624  0.63526696     1.58000
O454        O  0.90589930  0.63684392  0.62521663    -0.81300
H455        H  0.72943768  0.59239767  0.67244292    -0.05000
O456        O  0.81105586  0.71369101  0.67600631    -0.86600
H457        H  0.83339894  0.76221750  0.66477490    -0.04800
H458        H  0.81840518  0.63728457  0.71605830    -0.05000
C459        C  0.81769173  0.73341959  0.66304607     0.88500
C460        C  0.75137860  0.60683270  0.66338936     0.89100
C461        C  0.81480693  0.65315625  0.70608127     0.89200
H462        H  0.93208414  0.74418935  0.65975690    -0.05000
O463        O  0.87690695  0.69129590  0.63007381    -0.74000
Mg464      Mg  0.85133305  0.73228473  0.69644675     1.58000
H465        H  0.84150857  0.69867784  0.61555167    -0.05000
C466        C  0.71297717  0.68304268  0.65072034     0.94100
O467        O  0.75471628  0.70029419  0.70607674    -0.81300
C468        C  0.77695451  0.71830978  0.71818053     0.94200
O469        O  0.76483161  0.58208631  0.61422228    -0.81200
Mg470      Mg  0.90187147  0.66761252  0.64868319     1.58200
O471        O  0.72621983  0.68835387  0.66616569    -0.79600
O472        O  0.93589550  0.66363339  0.69328721    -0.81300
C473        C  0.63364732  0.83698988  0.84524784     0.03800
C474        C  0.63619615  0.80554528  0.84523339     0.03700
C475        C  0.65575577  0.80032292  0.83197023    -0.16800
C476        C  0.67333703  0.82629138  0.81882637     0.03800
C477        C  0.67173425  0.85835988  0.81922397     0.03700
C478        C  0.65170143  0.86324164  0.83235417    -0.16800
H479        H  0.65010909  0.88767435  0.83252525     0.05800
H480        H  0.65721425  0.77582199  0.83185181     0.05800
C481        C  0.01941949  0.52545534  0.48618600     0.03800
C482        C  0.01735395  0.49165514  0.48517765     0.03700
C483        C  0.99792064  0.46551269  0.49793798    -0.16800
C484        C  0.98046350  0.47237630  0.51165083     0.03800
C485        C  0.98235306  0.50607294  0.51264717     0.03700
C486        C  0.00185509  0.53228060  0.49989748    -0.16800
H487        H  0.00338726  0.55824405  0.50065495     0.05800
H488        H  0.99641023  0.43955096  0.49720673     0.05800
C489        C  0.51031493  0.52420773  0.48617977     0.03800
C490        C  0.47687108  0.49203696  0.48637798     0.03700
C491        C  0.46986228  0.46637789  0.49954054    -0.16800
C492        C  0.49568556  0.47220313  0.51242356     0.03800
C493        C  0.52921845  0.50420236  0.51216144     0.03700
C494        C  0.53619676  0.52998707  0.49905547    -0.16800
H495        H  0.56191097  0.55466658  0.49886307     0.05800
H496        H  0.44414923  0.44169599  0.49975561     0.05800
C497        C  0.51025920  0.98237810  0.48757312     0.03800
C498        C  0.47513724  0.97688327  0.48711765     0.03700
C499        C  0.46392079  0.99177068  0.50032203    -0.16800
C500        C  0.48717497  0.01180595  0.51402408     0.03800
C501        C  0.52207642  0.01674284  0.51465315     0.03700
C502        C  0.53338610  0.00209089  0.50137404    -0.16800
H503        H  0.56031796  0.00602286  0.50178710     0.05800
H504        H  0.43699547  0.98785311  0.49990071     0.05800
O505        O  0.05062035  0.98896069  0.99403006    -0.86900
C506        C  0.96132588  0.93220414  0.02457872     0.89200
Mg507      Mg  0.08999399  0.04384983  0.99908823     1.58100
O508        O  0.94362552  0.95929553  0.98392714    -0.86600
O509        O  0.01409246  0.95738621  0.97272766    -0.73900
C510        C  0.99535657  0.12512552  0.01217026     0.94200
O511        O  0.04270314  0.99621097  0.03570977    -0.73700
O512        O  0.02452868  0.12707359  0.01702055    -0.81200
Mg513      Mg  0.03516917  0.95259951  0.01601619     1.58000
C514        C  0.87814108  0.00599662  0.98252899     0.94100
O515        O  0.02937164  0.90538572  0.99959941    -0.79500
H516        H  0.94415472  0.95871656  0.95767829    -0.04800
C517        C  0.95500696  0.02311596  0.02576642     0.89100
O518        O  0.06341102  0.06320691  0.97896842    -0.74000
O519        O  0.98026967  0.93810998  0.01143550    -0.86800
O520        O  0.87614695  0.97653637  0.98735206    -0.79600
C521        C  0.87336802  0.87362578  0.99789929     0.94300
C522        C  0.00500573  0.87847290  0.99137600     0.94100
Mg523      Mg  0.96467520  0.05050726  0.98805677     1.58000
O524        O  0.97059423  0.09774870  0.00441416    -0.79500
O525        O  0.95679300  0.00695706  0.96827576    -0.73800
O526        O  0.90403974  0.87705784  0.99506589    -0.79600
O527        O  0.09294709  0.96776619  0.02086312    -0.81300
O528        O  0.09598460  0.12609061  0.00818987    -0.79600
C529        C  0.94753134  0.97399063  0.96951006     0.88500
O530        O  0.01939013  0.06458310  0.99254326    -0.86800
O531        O  0.94906595  0.01416410  0.01012837    -0.86900
O532        O  0.98604379  0.04626739  0.03123047    -0.73900
Mg533      Mg  0.95961646  0.91938942  0.98536591     1.58000
O534        O  0.86854008  0.90036608  0.99977380    -0.81300
H535        H  0.06684284  0.99335119  0.96911883    -0.05000
O536        O  0.05638887  0.04414218  0.02010604    -0.86600
H537        H  0.05507429  0.04434167  0.04635191    -0.04800
H538        H  0.03203229  0.08050634  0.96761358    -0.05000
C539        C  0.05203403  0.02921844  0.03450470     0.88500
C540        C  0.04503742  0.98023699  0.97836872     0.89100
C541        C  0.03804813  0.07022277  0.97931977     0.89200
H542        H  0.93342485  0.01008888  0.03513967    -0.05000
O543        O  0.93598421  0.93927855  0.02488186    -0.74000
Mg544      Mg  0.04055198  0.08413817  0.01839400     1.58000
H545        H  0.96705710  0.92161842  0.03626194    -0.05000
C546        C  0.12199536  0.99776458  0.02121137     0.94100
O547        O  0.13131777  0.10258112  0.00362661    -0.81300
C548        C  0.12654170  0.12939378  0.00514671     0.94200
O549        O  0.97600425  0.87672917  0.98636788    -0.81200
Mg550      Mg  0.90963781  0.95916906  0.00482969     1.58200
O551        O  0.12368604  0.02712401  0.01653190    -0.79600
O552        O  0.90723757  0.03589443  0.98307870    -0.81300
O553        O  0.62976713  0.35874517  0.32229358    -0.86900
C554        C  0.70778583  0.39197533  0.35962084     0.89200
Mg555      Mg  0.58655017  0.30473118  0.32144874     1.58100
O556        O  0.73310382  0.37630223  0.31796287    -0.86600
O557        O  0.67353062  0.39485466  0.30501264    -0.73900
C558        C  0.65815406  0.20027974  0.33170505     0.94200
O559        O  0.62191118  0.33304283  0.36259473    -0.73700
O560        O  0.62985805  0.20137421  0.33509623    -0.81200
Mg561      Mg  0.64030436  0.38556716  0.34736839     1.58000
C562        C  0.79115493  0.32234702  0.31466379     0.94100
O563        O  0.65774546  0.44146136  0.33553171    -0.79500
H564        H  0.74183439  0.38741300  0.29233065    -0.04800
C565        C  0.70350502  0.29556774  0.35336669     0.89100
O566        O  0.61583817  0.28932410  0.30100783    -0.74000
O567        O  0.69439989  0.39488942  0.34576218    -0.86800
O568        O  0.79239040  0.34981827  0.32167378    -0.79600
C569        C  0.80584745  0.45055547  0.33940691     0.94300
C570        C  0.68673493  0.46874397  0.33034204     0.94100
Mg571      Mg  0.70418829  0.28268819  0.31403939     1.58000
O572        O  0.68708585  0.22758806  0.32654855    -0.79500
O573        O  0.72275152  0.33492464  0.29843197    -0.73800
O574        O  0.77863177  0.45382472  0.33604771    -0.79600
O575        O  0.58223099  0.37442696  0.34945255    -0.81300
O576        O  0.56634830  0.21479907  0.32433528    -0.79600
C577        C  0.73329456  0.36734243  0.30256475     0.88500
O578        O  0.65028560  0.27367940  0.31527027    -0.86800
O579        O  0.71450222  0.31003294  0.33892432    -0.86900
O580        O  0.67045497  0.27402382  0.35612237    -0.73900
Mg581      Mg  0.72413796  0.42073260  0.32213394     1.58000
O582        O  0.80440311  0.42037023  0.33993705    -0.81300
H583        H  0.62147605  0.36694300  0.29729531    -0.05000
O584        O  0.61107804  0.29195970  0.34282317    -0.86600
H585        H  0.60245424  0.28039354  0.36841175    -0.04800
H586        H  0.64580186  0.27107705  0.28910076    -0.05000
C587        C  0.61102121  0.30066592  0.35827585     0.88500
C588        C  0.64051043  0.37348294  0.30789392     0.89100
C589        C  0.63749198  0.27730315  0.30136039     0.89200
H590        H  0.72233198  0.30241042  0.36408679    -0.05000
O591        O  0.72954965  0.38010122  0.35992256    -0.74000
Mg592      Mg  0.62016886  0.24779107  0.33874961     1.58000
H593        H  0.69995679  0.39873802  0.37187566    -0.05000
C594        C  0.55294916  0.34514262  0.34679121     0.94100
O595        O  0.54031342  0.24801136  0.32043175    -0.81300
C596        C  0.53910833  0.21791563  0.32082768     0.94200
O597        O  0.71455629  0.46723607  0.32626921    -0.81200
Mg598      Mg  0.75801624  0.36390109  0.33938481     1.58200
O599        O  0.55195682  0.31825775  0.33923067    -0.79600
O600        O  0.76178063  0.29308506  0.31231608    -0.81300
O601        O  0.28718240  0.68914139  0.65922713    -0.86900
C602        C  0.36770424  0.72283759  0.69550507     0.89200
Mg603      Mg  0.24305814  0.63536609  0.65920644     1.58100
O604        O  0.38980331  0.70550808  0.65340845    -0.86600
O605        O  0.33029037  0.72456461  0.64145457    -0.73900
C606        C  0.31384388  0.53038674  0.66948114     0.94200
O607        O  0.28076156  0.66522799  0.69990121    -0.73700
O608        O  0.28609162  0.53202847  0.67347384    -0.81200
Mg609      Mg  0.29968581  0.71713330  0.68409378     1.58000
C610        C  0.44589319  0.65011354  0.64895922     0.94100
O611        O  0.31744832  0.77279005  0.67201037    -0.79500
H612        H  0.39570988  0.71513304  0.62757425    -0.04800
C613        C  0.36173102  0.62690449  0.68957819     0.89100
O614        O  0.27000366  0.61767836  0.63857270    -0.74000
O615        O  0.35328626  0.72508495  0.68186454    -0.86800
O616        O  0.44822449  0.67809787  0.65593364    -0.79600
C617        C  0.46469657  0.78036473  0.67366247     0.94300
C618        C  0.34663913  0.79972426  0.66679604     0.94100
Mg619      Mg  0.35885525  0.61138228  0.65026899     1.58000
O620        O  0.34223553  0.55701009  0.66337255    -0.79500
O621        O  0.37640265  0.66283968  0.63416453    -0.73800
O622        O  0.43707099  0.78335554  0.67116658    -0.79600
O623        O  0.24249322  0.70773589  0.68653394    -0.81300
O624        O  0.22184834  0.54517616  0.66346227    -0.79600
C625        C  0.38803649  0.69559843  0.63802206     0.88500
O626        O  0.30529488  0.60292774  0.65261049    -0.86800
O627        O  0.37195199  0.64018236  0.67484269    -0.86900
O628        O  0.32878820  0.60611295  0.69297900    -0.73900
Mg629      Mg  0.38190638  0.75036729  0.65790956     1.58000
O630        O  0.46339892  0.75021137  0.67385167    -0.81300
H631        H  0.27788794  0.69669623  0.63428680    -0.05000
O632        O  0.26834783  0.62325618  0.68046611    -0.86600
H633        H  0.26015733  0.61260303  0.70614697    -0.04800
H634        H  0.29825959  0.59754823  0.62659818    -0.05000
C635        C  0.26892119  0.63256902  0.69585190     0.88500
C636        C  0.29736465  0.70338598  0.64468445     0.89100
C637        C  0.29129311  0.60524318  0.63883663     0.89200
H638        H  0.38123243  0.63427440  0.70001931    -0.05000
O639        O  0.38972670  0.71126904  0.69543642    -0.74000
Mg640      Mg  0.27696603  0.57880731  0.67673056     1.58000
H641        H  0.36078138  0.73013468  0.70786808    -0.05000
C642        C  0.21254163  0.67905011  0.68418899     0.94100
O643        O  0.19630436  0.57878804  0.65915515    -0.81300
C644        C  0.19472395  0.54851666  0.65994906     0.94200
O645        O  0.37389240  0.79751208  0.66244323    -0.81200
Mg646      Mg  0.41615422  0.69375817  0.67433149     1.58200
O647        O  0.21013797  0.65114527  0.67704095    -0.79600
O648        O  0.41608285  0.62101004  0.64723276    -0.81300
C649        C  0.11343810  0.66769788  0.68974120     0.18500
C650        C  0.08802083  0.64054310  0.67884044    -0.10600
C651        C  0.05295534  0.63455461  0.67778876    -0.11500
C652        C  0.04293265  0.65564517  0.68764626     0.20100
C653        C  0.06824722  0.68262404  0.69867780    -0.13500
C654        C  0.10337330  0.68863290  0.69972562    -0.11800
C655        C  0.00735504  0.65089447  0.68576426     0.01000
C656        C  0.97887845  0.64964464  0.68363975    -0.31800
C657        C  0.14991439  0.67445864  0.69010699     0.02400
C658        C  0.17955101  0.67810641  0.68866370    -0.33500
H659        H  0.09543840  0.62425574  0.67098429     0.13500
H660        H  0.03381651  0.61381030  0.66911501     0.13300
H661        H  0.06096901  0.69932192  0.70628089     0.13100
H662        H  0.12272570  0.70981230  0.70814290     0.12200
C663        C  0.61729845  0.67920910  0.64344633     0.18500
C664        C  0.60809856  0.70366061  0.65048087    -0.10600
C665        C  0.57255539  0.69640445  0.64966433    -0.11500
C666        C  0.54587387  0.66463561  0.64181742     0.20100
C667        C  0.55516537  0.64042766  0.63454738    -0.13500
C668        C  0.59073289  0.64770121  0.63535265    -0.11800
C669        C  0.50890701  0.65641682  0.64205158     0.01000
C670        C  0.47892566  0.65165429  0.64395749    -0.31800
C671        C  0.65333699  0.68520364  0.64541187     0.02400
C672        C  0.68199164  0.68688142  0.64762543    -0.33500
H673        H  0.62823204  0.72798515  0.65687174     0.13500
H674        H  0.56576056  0.71528765  0.65542372     0.13300
H675        H  0.53486121  0.61569877  0.62852823     0.13100
H676        H  0.59738652  0.62843362  0.62995424     0.12200
C677        C  0.74232768  0.76041241  0.75670781     0.18500
C678        C  0.70560642  0.74858953  0.75814366    -0.10600
C679        C  0.69342545  0.76463848  0.77025652    -0.11500
C680        C  0.71781238  0.79275868  0.78105682     0.20100
C681        C  0.75458205  0.80469855  0.77960716    -0.13500
C682        C  0.76678587  0.78862802  0.76747029    -0.11800
C683        C  0.70475462  0.80829975  0.79393833     0.01000
C684        C  0.69173084  0.81853167  0.80502445    -0.31800
C685        C  0.75479536  0.74408089  0.74394825     0.02400
C686        C  0.76485393  0.73125242  0.73266777    -0.33500
H687        H  0.68636599  0.72694665  0.74989649     0.13500
H688        H  0.66493530  0.75498854  0.77125446     0.13300
H689        H  0.77377522  0.82628491  0.78789443     0.13100
H690        H  0.79525856  0.79819254  0.76648535     0.12200
C691        C  0.60635576  0.52331489  0.54936721     0.18500
C692        C  0.59660142  0.51371359  0.56697046    -0.10600
C693        C  0.62304141  0.52244519  0.57988296    -0.11500
C694        C  0.65948664  0.54076386  0.57530714     0.20100
C695        C  0.66915946  0.54960211  0.55764597    -0.13500
C696        C  0.64274679  0.54090590  0.54474806    -0.11800
C697        C  0.68699621  0.55290051  0.58877352     0.01000
C698        C  0.71047505  0.56646500  0.59976323    -0.31800
C699        C  0.57924921  0.51625976  0.53617491     0.02400
C700        C  0.55666551  0.51094181  0.52519637    -0.33500
H701        H  0.56861423  0.50008858  0.57076363     0.13500
H702        H  0.61509332  0.51560317  0.59347057     0.13300
H703        H  0.69717003  0.56393557  0.55389492     0.13100
H704        H  0.65075346  0.54850650  0.53122346     0.12200
C705        C  0.93992400  0.54100635  0.55075250     0.18500
C706        C  0.96300117  0.56264152  0.56415403    -0.10600
C707        C  0.95159050  0.57937270  0.57625914    -0.11500
C708        C  0.91699510  0.57470438  0.57506879     0.20100
C709        C  0.89374914  0.55277112  0.56176513    -0.13500
C710        C  0.90518257  0.53602753  0.54963823    -0.11800
C711        C  0.90529405  0.59192679  0.58767422     0.01000
C712        C  0.89555997  0.60521603  0.59884952    -0.31800
C713        C  0.95262165  0.52541507  0.53776696     0.02400
C714        C  0.96517188  0.51493378  0.52658682    -0.33500
H715        H  0.98995179  0.56685538  0.56514812     0.13500
H716        H  0.96980491  0.59606476  0.58650541     0.13300
H717        H  0.86687457  0.54873813  0.56072359     0.13100
H718        H  0.88707603  0.51950029  0.53932058     0.12200
C719        C  0.62756652  0.93443417  0.66494235     0.18500
C720        C  0.62340297  0.91240015  0.67938544    -0.10600
C721        C  0.59052085  0.88114220  0.68235757    -0.11500
C722        C  0.56161196  0.87186050  0.67094052     0.20100
C723        C  0.56581923  0.89384111  0.65646147    -0.13500
C724        C  0.59868637  0.92507941  0.65348920    -0.11800
C725        C  0.52774002  0.83964034  0.67386855     0.01000
C726        C  0.49898364  0.81253234  0.67498133    -0.31800
C727        C  0.66078264  0.96756862  0.66241410     0.02400
C728        C  0.68731065  0.99676621  0.66120002    -0.33500
H729        H  0.64545532  0.91953748  0.68841484     0.13500
H730        H  0.58760328  0.86432425  0.69356624     0.13300
H731        H  0.54367135  0.88689843  0.64751936     0.13100
H732        H  0.60148736  0.94206447  0.64236887     0.12200
C733        C  0.09529179  0.46164087  0.66277121     0.18500
C734        C  0.07050087  0.44562514  0.64908675    -0.10600
C735        C  0.03610155  0.41713050  0.65265764    -0.11500
C736        C  0.02639189  0.40468943  0.66992067     0.20100
C737        C  0.05107241  0.42092874  0.68362068    -0.13500
C738        C  0.08544429  0.44940344  0.68005330    -0.11800
C739        C  0.99241084  0.37317054  0.67325972     0.01000
C740        C  0.96596999  0.34415135  0.67486026    -0.31800
C741        C  0.13069150  0.49102423  0.65930090     0.02400
C742        C  0.16037554  0.51674441  0.65821973    -0.33500
H743        H  0.07783201  0.45495594  0.63569364     0.13500
H744        H  0.01731253  0.40440060  0.64194307     0.13300
H745        H  0.04396713  0.41119009  0.69697319     0.13100
H746        H  0.10442497  0.46169927  0.69073579     0.12200
C747        C  0.72028436  0.94479410  0.78624251     0.18500
C748        C  0.74359043  0.94849498  0.77256388    -0.10600
C749        C  0.75817681  0.97903027  0.76182203    -0.11500
C750        C  0.74962754  0.00613795  0.76468268     0.20100
C751        C  0.72659019  0.00263819  0.77848169    -0.13500
C752        C  0.71200145  0.97207361  0.78924318    -0.11800
C753        C  0.76315438  0.03641599  0.75283923     0.01000
C754        C  0.77367792  0.05911995  0.74149239    -0.31800
C755        C  0.70446002  0.91288527  0.79704226     0.02400
C756        C  0.69021773  0.88696130  0.80657745    -0.33500
H757        H  0.75020324  0.92764052  0.77009600     0.13500
H758        H  0.77576832  0.98128900  0.75113643     0.13300
H759        H  0.71957430  0.02325771  0.78077921     0.13100
H760        H  0.69400314  0.96954250  0.79977943     0.12200
C761        C  0.59397230  0.06859186  0.55433354     0.18500
C762        C  0.60286757  0.04779825  0.56517557    -0.10600
C763        C  0.62946552  0.06429228  0.57803255    -0.11500
C764        C  0.64738488  0.10170622  0.58014372     0.20100
C765        C  0.63815984  0.12250651  0.56947685    -0.13500
C766        C  0.61149969  0.10597770  0.55659956    -0.11800
C767        C  0.67619000  0.11853730  0.59274312     0.01000
C768        C  0.70092791  0.13035242  0.60299908    -0.31800
C769        C  0.56777916  0.05154730  0.54054699     0.02400
C770        C  0.54659512  0.03624453  0.52882603    -0.33500
H771        H  0.58959158  0.01889897  0.56353029     0.13500
H772        H  0.63643130  0.04792749  0.58615149     0.13300
H773        H  0.65189569  0.15146003  0.57093935     0.13100
H774        H  0.60491415  0.12235139  0.54827172     0.12200
C775        C  0.90748995  0.33149545  0.57021546     0.18500
C776        C  0.92359413  0.36680580  0.57660314    -0.10600
C777        C  0.93635782  0.39579925  0.56493593    -0.11500
C778        C  0.93309069  0.38971308  0.54678205     0.20100
C779        C  0.91688523  0.35439711  0.54036085    -0.13500
C780        C  0.90408258  0.32534756  0.55204948    -0.11800
C781        C  0.94766068  0.41972855  0.53478854     0.01000
C782        C  0.96159605  0.44444958  0.52455108    -0.31800
C783        C  0.89442309  0.30192059  0.58245250     0.02400
C784        C  0.88417627  0.27975315  0.59404066    -0.33500
H785        H  0.92637713  0.37192675  0.59061542     0.13500
H786        H  0.94899798  0.42294599  0.57006489     0.13300
H787        H  0.91438860  0.34935177  0.52634342     0.13100
H788        H  0.89167700  0.29820364  0.54693918     0.12200
C789        C  0.99751942  0.79095010  0.75809633     0.18500
C790        C  0.03295842  0.81791826  0.75477352    -0.10600
C791        C  0.05944924  0.82750495  0.76772307    -0.11500
C792        C  0.05070920  0.81011753  0.78407755     0.20100
C793        C  0.01521514  0.78342911  0.78745450    -0.13500
C794        C  0.98875330  0.77387003  0.77452475    -0.11800
C795        C  0.07810563  0.81901058  0.79727903     0.01000
C796        C  0.10049434  0.82556607  0.80850658    -0.31800
C797        C  0.97056440  0.77934664  0.74442417     0.02400
C798        C  0.94783235  0.76668448  0.73307024    -0.33500
H799        H  0.04020067  0.83118336  0.74210983     0.13500
H800        H  0.08677307  0.84816339  0.76491925     0.13300
H801        H  0.00807349  0.76973074  0.80001507     0.13100
H802        H  0.96156373  0.75281567  0.77725633     0.12200
C803        C  0.00927746  0.24306146  0.75659803     0.18500
C804        C  0.00267242  0.25311331  0.77307499    -0.10600
C805        C  0.03045514  0.26992278  0.78536648    -0.11500
C806        C  0.06507613  0.27686292  0.78126937     0.20100
C807        C  0.07180695  0.26716890  0.76473114    -0.13500
C808        C  0.04399860  0.25035474  0.75242499    -0.11800
C809        C  0.09343807  0.29348878  0.79412864     0.01000
C810        C  0.11644053  0.30711368  0.80526502    -0.31800
C811        C  0.98049467  0.22575759  0.74396660     0.02400
C812        C  0.95593521  0.21279238  0.73357774    -0.33500
H813        H  0.97603499  0.24786889  0.77643536     0.13500
H814        H  0.02490761  0.27735172  0.79808375     0.13300
H815        H  0.09846563  0.27245100  0.76138769     0.13100
H816        H  0.04953806  0.24295924  0.73970078     0.12200
C817        C  0.30459383  0.43201157  0.66789190     0.18500
C818        C  0.32628015  0.42173549  0.67701710    -0.10600
C819        C  0.32336753  0.38846732  0.67357127    -0.11500
C820        C  0.29882838  0.36547005  0.66098164     0.20100
C821        C  0.27667237  0.37545003  0.65208193    -0.13500
C822        C  0.27956594  0.40873592  0.65554241    -0.11800
C823        C  0.29749697  0.33221929  0.65702038     0.01000
C824        C  0.30047677  0.30602209  0.65533248    -0.31800
C825        C  0.30916371  0.46710745  0.67044044     0.02400
C826        C  0.31230005  0.49650568  0.67098411    -0.33500
H827        H  0.34578162  0.43962789  0.68653662     0.13500
H828        H  0.34061273  0.38089770  0.68051431     0.13300
H829        H  0.25764277  0.35781871  0.64233265     0.13100
H830        H  0.26277450  0.41659501  0.64838628     0.12200
C831        C  0.35958634  0.89989681  0.67070339     0.18500
C832        C  0.33680636  0.90963380  0.66226352    -0.10600
C833        C  0.34109226  0.94368315  0.66498451    -0.11500
C834        C  0.36815600  0.96820469  0.67617044     0.20100
C835        C  0.39120868  0.95865089  0.68454995    -0.13500
C836        C  0.38691244  0.92447395  0.68181347    -0.11800
C837        C  0.37122854  0.00269610  0.67905043     0.01000
C838        C  0.36881893  0.02941382  0.67982059    -0.31800
C839        C  0.35424641  0.86438708  0.66825099     0.02400
C840        C  0.34977720  0.83450426  0.66682558    -0.33500
H841        H  0.31557357  0.89081960  0.65369485     0.13500
H842        H  0.32310324  0.95081588  0.65846216     0.13300
H843        H  0.41219285  0.97740746  0.69324001     0.13100
H844        H  0.40463522  0.91712208  0.68843697     0.12200
C845        C  0.18870617  0.93941447  0.78299912     0.18500
C846        C  0.22227288  0.95149706  0.77522084    -0.10600
C847        C  0.23382593  0.97680463  0.76165885    -0.11500
C848        C  0.21189928  0.99021854  0.75577263     0.20100
C849        C  0.17810099  0.97782655  0.76339149    -0.13500
C850        C  0.16650604  0.95243053  0.77697375    -0.11800
C851        C  0.22497470  0.01766175  0.74241187     0.01000
C852        C  0.23891055  0.04159108  0.73177040    -0.31800
C853        C  0.17740127  0.91390605  0.79721812     0.02400
C854        C  0.16903160  0.89232222  0.80897613    -0.33500
H855        H  0.23963188  0.94157819  0.77973929     0.13500
H856        H  0.26003207  0.98622893  0.75590052     0.13300
H857        H  0.16094151  0.98805328  0.75897695     0.13100
H858        H  0.14044697  0.94319696  0.78286082     0.12200
C859        C  0.24009932  0.24858912  0.75908539     0.18500
C860        C  0.25028466  0.25411489  0.77680674    -0.10600
C861        C  0.23470451  0.26772942  0.78835162    -0.11500
C862        C  0.20881780  0.27590716  0.78226754     0.20100
C863        C  0.19852401  0.27029049  0.76455329    -0.13500
C864        C  0.21412191  0.25667093  0.75299840    -0.11800
C865        C  0.19365293  0.29082435  0.79419124     0.01000
C866        C  0.18336431  0.30429402  0.80493949    -0.31800
C867        C  0.25653906  0.23511524  0.74707507     0.02400
C868        C  0.26950347  0.22452493  0.73620160    -0.33500
H869        H  0.27036508  0.24807412  0.78167494     0.13500
H870        H  0.24299428  0.27207922  0.80200221     0.13300
H871        H  0.17864658  0.27661179  0.75966816     0.13100
H872        H  0.20606233  0.25260461  0.73931489     0.12200
C873        C  0.41874634  0.08342838  0.57300523     0.18500
C874        C  0.42720533  0.05750398  0.57872498    -0.10600
C875        C  0.44208661  0.04344848  0.56705643    -0.11500
C876        C  0.44861598  0.05526185  0.54959536     0.20100
C877        C  0.44024095  0.08125395  0.54386096    -0.13500
C878        C  0.42535094  0.09534250  0.55554854    -0.11800
C879        C  0.46328711  0.04026538  0.53750264     0.01000
C880        C  0.47470156  0.02735553  0.52707670    -0.31800
C881        C  0.40394244  0.09801683  0.58526401     0.02400
C882        C  0.39283998  0.10908539  0.59678746    -0.33500
H883        H  0.42232524  0.04819168  0.59221250     0.13500
H884        H  0.44840689  0.02334393  0.57162940     0.13300
H885        H  0.44514031  0.09053775  0.53037106     0.13100
H886        H  0.41903905  0.11546191  0.55099608     0.12200
C887        C  0.45109452  0.34287750  0.57677101     0.18500
C888        C  0.45098284  0.37483340  0.58037594    -0.10600
C889        C  0.46091879  0.40124049  0.56738236    -0.11500
C890        C  0.47099679  0.39589888  0.55065466     0.20100
C891        C  0.47148939  0.36411214  0.54708851    -0.13500
C892        C  0.46154592  0.33767856  0.56009518    -0.11800
C893        C  0.48008760  0.42267945  0.53710324     0.01000
C894        C  0.48721768  0.44510512  0.52582344    -0.31800
C895        C  0.43879032  0.31488128  0.58991798     0.02400
C896        C  0.42598549  0.29129399  0.60083893    -0.33500
H897        H  0.44277158  0.37913714  0.59316178     0.13500
H898        H  0.46037290  0.42563947  0.57032310     0.13300
H899        H  0.47917974  0.35960277  0.53421415     0.13100
H900        H  0.46156876  0.31304264  0.55708133     0.12200
C901        C  0.98008681  0.21029055  0.00812027     0.18500
C902        C  0.98589819  0.23665976  0.02055334    -0.10600
C903        C  0.98082186  0.26534214  0.01590704    -0.11500
C904        C  0.96993041  0.26778869  0.99881912     0.20100
C905        C  0.96388055  0.24128505  0.98642550    -0.13500
C906        C  0.96892710  0.21259388  0.99107474    -0.11800
C907        C  0.96686912  0.29853901  0.99393382     0.01000
C908        C  0.96780869  0.32671747  0.99142692    -0.31800
C909        C  0.98618651  0.18116702  0.01252990     0.02400
C910        C  0.99086320  0.15585738  0.01404415    -0.33500
H911        H  0.99464184  0.23523441  0.03373899     0.13500
H912        H  0.98582656  0.28585457  0.02556364     0.13300
H913        H  0.95571828  0.24302655  0.97315451     0.13100
H914        H  0.96447153  0.19238937  0.98133524     0.12200
C915        C  0.01794296  0.79158972  0.99353415     0.18500
C916        C  0.02593416  0.78578220  0.01068382    -0.10600
C917        C  0.02884061  0.75549193  0.01454473    -0.11500
C918        C  0.02382389  0.73090992  0.00125147     0.20100
C919        C  0.01615056  0.73687726  0.98406774    -0.13500
C920        C  0.01321180  0.76715785  0.98020903    -0.11800
C921        C  0.02460261  0.69856350  0.00525175     0.01000
C922        C  0.02203818  0.66950246  0.00710162    -0.31800
C923        C  0.01359533  0.82209831  0.98993513     0.02400
C924        C  0.00964324  0.84793008  0.98903390    -0.33500
H925        H  0.02948623  0.80445011  0.02110586     0.13500
H926        H  0.03450341  0.75101022  0.02789203     0.13300
H927        H  0.01195215  0.71786040  0.97371587     0.13100
H928        H  0.00686837  0.77128151  0.96693253     0.12200
C929        C  0.10970085  0.72852460  0.88258991     0.18500
C930        C  0.07850886  0.71914767  0.89220796    -0.10600
C931        C  0.06354312  0.68867928  0.90299909    -0.11500
C932        C  0.07956619  0.66724244  0.90422035     0.20100
C933        C  0.11066487  0.67648180  0.89452564    -0.13500
C934        C  0.12564943  0.70699429  0.88371541    -0.11800
C935        C  0.06500098  0.63692701  0.91608159     0.01000
C936        C  0.05344852  0.61377250  0.92722444    -0.31800
C937        C  0.12474106  0.75980709  0.87135767     0.02400
C938        C  0.13520966  0.78515343  0.86149729    -0.33500
H939        H  0.06581705  0.73544885  0.89140449     0.13500
H940        H  0.03964843  0.68200681  0.91050015     0.13300
H941        H  0.12346241  0.66029446  0.89543016     0.13100
H942        H  0.14967588  0.71384196  0.87629470     0.12200
C943        C  0.13746190  0.40708821  0.88570529     0.18500
C944        C  0.12848861  0.39231665  0.90262591    -0.10600
C945        C  0.11790829  0.40844291  0.91548025    -0.11500
C946        C  0.11626010  0.43949407  0.91152627     0.20100
C947        C  0.12563065  0.45450034  0.89466351    -0.13500
C948        C  0.13620888  0.43837058  0.88180809    -0.11800
C949        C  0.10309921  0.45470887  0.92445044     0.01000
C950        C  0.08952652  0.46535677  0.93497702    -0.31800
C951        C  0.14691852  0.38963487  0.87222335     0.02400
C952        C  0.15394129  0.37475103  0.86071677    -0.33500
H953        H  0.12923283  0.36810351  0.90581497     0.13500
H954        H  0.11051250  0.39640509  0.92841496     0.13300
H955        H  0.12425516  0.47833746  0.89137914     0.13100
H956        H  0.14296643  0.45002531  0.86877687     0.12200
C957        C  0.20936123  0.23238034  0.00645380     0.18500
C958        C  0.22443599  0.24513765  0.02306704    -0.10600
C959        C  0.25276417  0.28034630  0.02503101    -0.11500
C960        C  0.26606246  0.30302307  0.01039784     0.20100
C961        C  0.25054673  0.29050004  0.99381914    -0.13500
C962        C  0.22218277  0.25524336  0.99185243    -0.11800
C963        C  0.29770363  0.33779070  0.01208268     0.01000
C964        C  0.32660430  0.36477869  0.01260046    -0.31800
C965        C  0.18099171  0.19573952  0.00452322     0.02400
C966        C  0.15675771  0.16505948  0.00407969    -0.33500
H967        H  0.21465453  0.22769135  0.03444773     0.13500
H968        H  0.26480501  0.28961034  0.03786654     0.13300
H969        H  0.26089102  0.30770160  0.98237823     0.13100
H970        H  0.21066043  0.24567529  0.97895331     0.12200
C971        C  0.73472192  0.70010478  0.98949637     0.18500
C972        C  0.73698453  0.72782652  0.97888072    -0.10600
C973        C  0.76503418  0.76302579  0.98123947    -0.11500
C974        C  0.79090479  0.77072383  0.99427126     0.20100
C975        C  0.78915439  0.74289118  0.00464139    -0.13500
C976        C  0.76102611  0.70762234  0.00228916    -0.11800
C977        C  0.81909976  0.80721737  0.99691948     0.01000
C978        C  0.84311885  0.83789301  0.99815423    -0.31800
C979        C  0.70347446  0.66494564  0.98838654     0.02400
C980        C  0.67460519  0.63790874  0.98837967    -0.33500
H981        H  0.71658472  0.72237429  0.96907834     0.13500
H982        H  0.76623525  0.78431358  0.97309611     0.13300
H983        H  0.80914344  0.74853825  0.01469901     0.13100
H984        H  0.75931929  0.68644004  0.01069164     0.12200
C985        C  0.59098358  0.72998424  0.88413114     0.18500
C986        C  0.60829944  0.71117941  0.88933168    -0.10600
C987        C  0.59360241  0.68522725  0.90259445    -0.11500
C988        C  0.56148411  0.67788208  0.91076424     0.20100
C989        C  0.54422749  0.69680939  0.90563560    -0.13500
C990        C  0.55896163  0.72282156  0.89235912    -0.11800
C991        C  0.54631920  0.65064896  0.92423244     0.01000
C992        C  0.53548064  0.62714331  0.93516931    -0.31800
C993        C  0.60608624  0.75645637  0.87033012     0.02400
C994        C  0.61938510  0.77860501  0.85880466    -0.33500
H995        H  0.63308072  0.71649346  0.88309795     0.13500
H996        H  0.60720969  0.67079022  0.90643323     0.13300
H997        H  0.51939359  0.69138808  0.91184187     0.13100
H998        H  0.54536010  0.73723663  0.88847677     0.12200
C999        C  0.33092919  0.42327933  0.90674194     0.18500
C1000       C  0.32603388  0.39676244  0.89457005    -0.10600
C1001       C  0.29717127  0.38331591  0.88281244    -0.11500
C1002       C  0.27304304  0.39626308  0.88321011     0.20100
C1003       C  0.27788244  0.42270206  0.89541208    -0.13500
C1004       C  0.30674777  0.43615441  0.90716457    -0.11800
C1005       C  0.24360352  0.38259363  0.87097326     0.01000
C1006       C  0.21988833  0.37052798  0.86018574    -0.31800
C1007       C  0.35998026  0.43650072  0.91919575     0.02400
C1008       C  0.38242510  0.44691364  0.93060631    -0.33500
H1009       H  0.34441129  0.38643204  0.89421146     0.13500
H1010       H  0.29365776  0.36285015  0.87342732     0.13300
H1011       H  0.25937952  0.43287669  0.89583889     0.13100
H1012       H  0.31014309  0.45647692  0.91661199     0.12200
C1013       C  0.78893299  0.01403989  0.97346423     0.18500
C1014       C  0.75587443  0.98597066  0.96754806    -0.10600
C1015       C  0.72528627  0.98964075  0.96786849    -0.11500
C1016       C  0.72745290  0.02140522  0.97411474     0.20100
C1017       C  0.76071264  0.04984486  0.97959371    -0.13500
C1018       C  0.79131209  0.04618141  0.97926372    -0.11800
C1019       C  0.69517669  0.02372164  0.97596517     0.01000
C1020       C  0.66695780  0.02290419  0.97832939    -0.31800
C1021       C  0.81981013  0.00914869  0.97471322     0.02400
C1022       C  0.84599524  0.00619405  0.97728986    -0.33500
H1023       H  0.75355038  0.96094076  0.96309705     0.13500
H1024       H  0.69976786  0.96736330  0.96365370     0.13300
H1025       H  0.76282853  0.07449044  0.98451882     0.13100
H1026       H  0.81663308  0.06807911  0.98394255     0.12200
C1027       C  0.21206803  0.99026094  0.02662502     0.18500
C1028       C  0.24612150  0.01816380  0.03149522    -0.10600
C1029       C  0.27611094  0.01364610  0.03009036    -0.11500
C1030       C  0.27232043  0.98121875  0.02378815     0.20100
C1031       C  0.23822725  0.95323996  0.01903734    -0.13500
C1032       C  0.20824712  0.95774797  0.02045199    -0.11800
C1033       C  0.30363050  0.97737991  0.02156876     0.01000
C1034       C  0.33124523  0.97700227  0.01922257    -0.31800
C1035       C  0.18128400  0.99534663  0.02704448     0.02400
C1036       C  0.15461059  0.99786895  0.02567607    -0.33500
H1037       H  0.24956722  0.04353245  0.03614692     0.13500
H1038       H  0.30232189  0.03560289  0.03370558     0.13300
H1039       H  0.23488070  0.92813437  0.01403911     0.13100
H1040       H  0.18214867  0.93604589  0.01650055     0.12200
C1041       C  0.31461404  0.91188823  0.91009056     0.18500
C1042       C  0.29104426  0.87459500  0.90998412    -0.10600
C1043       C  0.26198329  0.85927248  0.89825169    -0.11500
C1044       C  0.25622066  0.88113169  0.88653846     0.20100
C1045       C  0.27971560  0.91841709  0.88670188    -0.13500
C1046       C  0.30874644  0.93372404  0.89842300    -0.11800
C1047       C  0.22659981  0.86561459  0.87420690     0.01000
C1048       C  0.20298330  0.85507590  0.86328178    -0.31800
C1049       C  0.34437830  0.92769725  0.92233721     0.02400
C1050       C  0.36814912  0.93990456  0.93320224    -0.33500
H1051       H  0.29512511  0.85737145  0.91897076     0.13500
H1052       H  0.24408768  0.83043832  0.89829832     0.13300
H1053       H  0.27562315  0.93566749  0.87773751     0.13100
H1054       H  0.32659087  0.96256705  0.89838522     0.12200
C1055       C  0.57537648  0.85635288  0.88173153     0.18500
C1056       C  0.58024995  0.85305850  0.89970637    -0.10600
C1057       C  0.56265884  0.86265684  0.91217246    -0.11500
C1058       C  0.53999231  0.87555938  0.90676930     0.20100
C1059       C  0.53456220  0.87822211  0.88878154    -0.13500
C1060       C  0.55218049  0.86862090  0.87630123    -0.11800
C1061       C  0.52462334  0.88853684  0.91967484     0.01000
C1062       C  0.51518405  0.90233548  0.93067419    -0.31800
C1063       C  0.59521363  0.84846845  0.86893773     0.02400
C1064       C  0.61260480  0.84288098  0.85826255    -0.33500
H1065       H  0.59814501  0.84369296  0.90408564     0.13500
H1066       H  0.56732855  0.86073807  0.92602151     0.13300
H1067       H  0.51734580  0.88841823  0.88441317     0.13100
H1068       H  0.54823174  0.87137900  0.86244824     0.12200
C1069       C  0.87760513  0.55978070  0.08688173     0.18500
C1070       C  0.90528181  0.58607573  0.09719289    -0.10600
C1071       C  0.89754208  0.60342824  0.11055306    -0.11500
C1072       C  0.86204740  0.59464515  0.11370857     0.20100
C1073       C  0.83427606  0.56844598  0.10336313    -0.13500
C1074       C  0.84204034  0.55102238  0.08996397    -0.11800
C1075       C  0.85433598  0.61235870  0.12767787     0.01000
C1076       C  0.84853349  0.62730748  0.13956452    -0.31800
C1077       C  0.88631913  0.54221934  0.07321584     0.02400
C1078       C  0.89803398  0.53041376  0.06232783    -0.33500
H1079       H  0.93287942  0.59312111  0.09491904     0.13500
H1080       H  0.91922101  0.62361578  0.11845167     0.13300
H1081       H  0.80670992  0.56145839  0.10568369     0.13100
H1082       H  0.82041598  0.53078646  0.08206459     0.12200
C1083       C  0.72673966  0.59680505  0.11915892     0.18500
C1084       C  0.73188246  0.58927003  0.10185278    -0.10600
C1085       C  0.70373350  0.57703959  0.08969676    -0.11500
C1086       C  0.67034419  0.57230966  0.09479212     0.20100
C1087       C  0.66501182  0.57909868  0.11218985    -0.13500
C1088       C  0.69314051  0.59132483  0.12433659    -0.11800
C1089       C  0.64210395  0.56178772  0.08199954     0.01000
C1090       C  0.61998284  0.55376334  0.07053343    -0.31800
C1091       C  0.75619643  0.61173594  0.13142724     0.02400
C1092       C  0.78024992  0.62573056  0.14199246    -0.33500
H1093       H  0.75774909  0.59343580  0.09769524     0.13500
H1094       H  0.70816893  0.57186179  0.07627326     0.13300
H1095       H  0.63934444  0.57553759  0.11628143     0.13100
H1096       H  0.68888429  0.59711588  0.13767787     0.12200
C1097       C  0.63438062  0.03133710  0.32340934     0.18500
C1098       C  0.64086072  0.04559453  0.34045367    -0.10600
C1099       C  0.64700686  0.08036151  0.34330766    -0.11500
C1100       C  0.64677211  0.10096897  0.32910466     0.20100
C1101       C  0.64001695  0.08661181  0.31208481    -0.13500
C1102       C  0.63389212  0.05185695  0.30922978    -0.11800
C1103       C  0.65302205  0.13670406  0.33185543     0.01000
C1104       C  0.65666899  0.16631581  0.33274826    -0.31800
C1105       C  0.63103458  0.99678792  0.32047002     0.02400
C1106       C  0.63266282  0.96968185  0.31953449    -0.33500
H1107       H  0.64167022  0.03002740  0.35148055     0.13500
H1108       H  0.65214664  0.09121506  0.35651448     0.13300
H1109       H  0.63972646  0.10237606  0.30102489     0.13100
H1110       H  0.62929233  0.04121310  0.29598896     0.12200
C1111       C  0.70619250  0.63575491  0.34220789     0.18500
C1112       C  0.71061760  0.61617812  0.35573552    -0.10600
C1113       C  0.70661893  0.58239482  0.35222694    -0.11500
C1114       C  0.69807150  0.56804897  0.33520446     0.20100
C1115       C  0.69420597  0.58788137  0.32163297    -0.13500
C1116       C  0.69823596  0.62164810  0.32513417    -0.11800
C1117       C  0.69274124  0.53276444  0.33182382     0.01000
C1118       C  0.68895267  0.50316205  0.33017461    -0.31800
C1119       C  0.70731027  0.66914470  0.34585500     0.02400
C1120       C  0.70433276  0.69548754  0.34713496    -0.33500
H1121       H  0.71652313  0.62671383  0.36899925     0.13500
H1122       H  0.70969960  0.56725818  0.36281594     0.13300
H1123       H  0.68763000  0.57706782  0.30843273     0.13100
H1124       H  0.69451505  0.63648187  0.31460053     0.12200
C1125       C  0.57906649  0.91495486  0.42646578     0.18500
C1126       C  0.60173721  0.94527365  0.43652550    -0.10600
C1127       C  0.58719058  0.95911182  0.44854110    -0.11500
C1128       C  0.54991722  0.94273977  0.45052367     0.20100
C1129       C  0.52724396  0.91255427  0.44039403    -0.13500
C1130       C  0.54178924  0.89870472  0.42838982    -0.11800
C1131       C  0.53503205  0.95654744  0.46316170     0.07600
C1132       C  0.52322873  0.96812070  0.47410015    -0.31800
C1133       C  0.59387669  0.90114848  0.41377143     0.02400
C1134       C  0.60517442  0.89015590  0.40229889    -0.33500
H1135       H  0.63058231  0.95821831  0.43505789     0.13500
H1136       H  0.60496884  0.98248395  0.45630279     0.13300
H1137       H  0.49838971  0.89971385  0.44180414     0.13100
H1138       H  0.52399786  0.87540942  0.42058693     0.12200
C1139       C  0.53510498  0.60265733  0.44904997     0.18500
C1140       C  0.51006222  0.59955207  0.43632251    -0.10600
C1141       C  0.51936301  0.62669305  0.42373924    -0.11500
C1142       C  0.55376670  0.65713988  0.42380523     0.20100
C1143       C  0.57871160  0.66025013  0.43657615    -0.13500
C1144       C  0.56943021  0.63315982  0.44913506    -0.11800
C1145       C  0.56415678  0.68473804  0.41053736     0.01000
C1146       C  0.57598201  0.70834012  0.39959458    -0.31800
C1147       C  0.52578967  0.57464884  0.46198071     0.02400
C1148       C  0.51860549  0.55158407  0.47293348    -0.33500
H1149       H  0.48343925  0.57611435  0.43608265     0.13500
H1150       H  0.49985210  0.62382306  0.41391347     0.13300
H1151       H  0.60544425  0.68352504  0.43675221     0.13100
H1152       H  0.58907168  0.63593818  0.45886672     0.12200
C1153       C  0.79531675  0.72437281  0.21932099     0.18500
C1154       C  0.77207764  0.73597775  0.21315334    -0.10600
C1155       C  0.75707152  0.74987576  0.22484485    -0.11500
C1156       C  0.76519044  0.75222836  0.24278398     0.20100
C1157       C  0.78857028  0.74075991  0.24897054    -0.13500
C1158       C  0.80360241  0.72684375  0.23726040    -0.11800
C1159       C  0.74910192  0.76581776  0.25487637     0.01000
C1160       C  0.73599893  0.77636384  0.26566054    -0.31800
C1161       C  0.80977100  0.70920804  0.20719029     0.02400
C1162       C  0.81954127  0.69582408  0.19617806    -0.33500
H1163       H  0.76538120  0.73406270  0.19931775     0.13500
H1164       H  0.73899372  0.75856918  0.21991868     0.13300
H1165       H  0.79498545  0.74237692  0.26283229     0.13100
H1166       H  0.82143439  0.71783781  0.24218736     0.12200
C1167       C  0.44225087  0.12753854  0.32361687     0.18500
C1168       C  0.43256831  0.11653482  0.34106994    -0.10600
C1169       C  0.40040132  0.08506995  0.34477630    -0.11500
C1170       C  0.37775101  0.06454760  0.33103751     0.20100
C1171       C  0.38717073  0.07584747  0.31360053    -0.13500
C1172       C  0.41935890  0.10731237  0.30989245    -0.11800
C1173       C  0.34595286  0.03082003  0.33465132     0.01000
C1174       C  0.32049397  0.00110313  0.33644076    -0.31800
C1175       C  0.47606553  0.15916439  0.31995831     0.02400
C1176       C  0.50502310  0.18591453  0.31881738    -0.33500
H1177       H  0.45011740  0.13201404  0.35178462     0.13500
H1178       H  0.39349325  0.07646283  0.35829035     0.13300
H1179       H  0.36992456  0.06002290  0.30287328     0.13100
H1180       H  0.42659626  0.11557924  0.29636388     0.12200
C1181       C  0.97145664  0.59859249  0.32936201     0.18500
C1182       C  0.94044180  0.60130441  0.32793036    -0.10600
C1183       C  0.90694326  0.57169334  0.33173743    -0.11500
C1184       C  0.90429806  0.53925067  0.33707162     0.20100
C1185       C  0.93529635  0.53643826  0.33846098    -0.13500
C1186       C  0.96888155  0.56613279  0.33466082    -0.11800
C1187       C  0.86958214  0.50849754  0.34026366     0.01000
C1188       C  0.84014904  0.48235369  0.34123441    -0.31800
C1189       C  0.00580128  0.62979982  0.32612705     0.02400
C1190       C  0.03284715  0.65835437  0.32446507    -0.33500
H1191       H  0.94218720  0.62636455  0.32394473     0.13500
H1192       H  0.88312019  0.57405233  0.33047019     0.13300
H1193       H  0.93347891  0.51134053  0.34242432     0.13100
H1194       H  0.99274115  0.56384062  0.33590970     0.12200
C1195       C  0.06804492  0.60896892  0.45148900     0.18500
C1196       C  0.10530133  0.63118255  0.44996138    -0.10600
C1197       C  0.11953807  0.66058240  0.43843507    -0.11500
C1198       C  0.09660718  0.66801793  0.42841864     0.20100
C1199       C  0.05937737  0.64599738  0.43009408    -0.13500
C1200       C  0.04516623  0.61664517  0.44159827    -0.11800
C1201       C  0.11104394  0.69692434  0.41574167     0.01000
C1202       C  0.12182056  0.71881398  0.40400407    -0.31800
C1203       C  0.05304928  0.57852365  0.46327116     0.02400
C1204       C  0.03869416  0.55355001  0.47337366    -0.33500
H1205       H  0.12330013  0.62565721  0.45757843     0.13500
H1206       H  0.14836369  0.67724795  0.43719541     0.13300
H1207       H  0.04133588  0.65128037  0.42236447     0.13100
H1208       H  0.01633078  0.59980113  0.44270012     0.12200
C1209       C  0.40287924  0.92096111  0.44810648     0.18500
C1210       C  0.41406549  0.91691778  0.43140397    -0.10600
C1211       C  0.38894424  0.90053616  0.41786175    -0.11500
C1212       C  0.35249473  0.88805607  0.42095957     0.20100
C1213       C  0.34125811  0.89147974  0.43776282    -0.13500
C1214       C  0.36635735  0.90787263  0.45128748    -0.11800
C1215       C  0.32682903  0.87368045  0.40676164     0.01000
C1216       C  0.30433284  0.86365907  0.39533427    -0.31800
C1217       C  0.42888872  0.93973018  0.46177784     0.02400
C1218       C  0.45024613  0.95635849  0.47324351    -0.33500
H1219       H  0.44223024  0.92696212  0.42877776     0.13500
H1220       H  0.39800644  0.89820692  0.40492194     0.13300
H1221       H  0.31319301  0.88210183  0.44031772     0.13100
H1222       H  0.35736770  0.91088795  0.46412729     0.12200
C1223       C  0.93990640  0.73109733  0.21795426     0.18500
C1224       C  0.94322818  0.71103707  0.23161809    -0.10600
C1225       C  0.97051559  0.72788498  0.24415256    -0.11500
C1226       C  0.99469085  0.76493984  0.24314268     0.20100
C1227       C  0.99133960  0.78504235  0.22949695    -0.13500
C1228       C  0.96401487  0.76817470  0.21695030    -0.11800
C1229       C  0.02347362  0.78184087  0.25580659     0.01000
C1230       C  0.04785073  0.79363898  0.26630517    -0.31800
C1231       C  0.91203524  0.71353792  0.20490968     0.02400
C1232       C  0.88879610  0.69844471  0.19399040    -0.33500
H1233       H  0.92484545  0.68236242  0.23253362     0.13500
H1234       H  0.97290707  0.71197710  0.25456551     0.13300
H1235       H  0.00994554  0.81364964  0.22849391     0.13100
H1236       H  0.96179870  0.78398544  0.20643486     0.12200
C1237       C  0.90753243  0.32929442  0.09368443     0.18500
C1238       C  0.90781435  0.33452592  0.11186540    -0.10600
C1239       C  0.89396300  0.30498407  0.12328055    -0.11500
C1240       C  0.87971054  0.27003412  0.11659313     0.20100
C1241       C  0.87923741  0.26481186  0.09840661    -0.13500
C1242       C  0.89308344  0.29432781  0.08700153    -0.11800
C1243       C  0.86658629  0.23976400  0.12842735     0.01000
C1244       C  0.85724646  0.21541791  0.13882989    -0.31800
C1245       C  0.92226380  0.35951982  0.08177871     0.02400
C1246       C  0.93385684  0.38251621  0.07056640    -0.33500
H1247       H  0.91890138  0.36137880  0.11721029     0.13500
H1248       H  0.89460361  0.30940710  0.13731796     0.13300
H1249       H  0.86842078  0.23798938  0.09305811     0.13100
H1250       H  0.89271431  0.28990350  0.07297315     0.12200
C1251       C  0.73680436  0.11997808  0.11441719     0.18500
C1252       C  0.74145522  0.13493709  0.09756669    -0.10600
C1253       C  0.71357212  0.11957625  0.08516524    -0.11500
C1254       C  0.68073260  0.08907647  0.08946417     0.20100
C1255       C  0.67596994  0.07434072  0.10636846    -0.13500
C1256       C  0.70384359  0.08969732  0.11876654    -0.11800
C1257       C  0.65224133  0.07283310  0.07647750     0.01000
C1258       C  0.62939903  0.06031227  0.06511854    -0.31800
C1259       C  0.76592906  0.13495180  0.12711108     0.02400
C1260       C  0.78952481  0.14555020  0.13809525    -0.33500
H1261       H  0.76670976  0.15828225  0.09396574     0.13500
H1262       H  0.71771862  0.13134693  0.07218090     0.13300
H1263       H  0.65081113  0.05084101  0.10993263     0.13100
H1264       H  0.69978147  0.07776394  0.13170817     0.12200
C1265       C  0.78517902  0.00916294  0.24391353     0.18500
C1266       C  0.82148664  0.02984182  0.23936377    -0.10600
C1267       C  0.83225294  0.05644662  0.22639846    -0.11500
C1268       C  0.80675277  0.06245233  0.21791572     0.20100
C1269       C  0.77052381  0.04196956  0.22257324    -0.13500
C1270       C  0.75978334  0.01544057  0.23552343    -0.11800
C1271       C  0.81750055  0.08925236  0.20430888     0.01000
C1272       C  0.82548392  0.11129825  0.19279138    -0.31800
C1273       C  0.77359163  0.98125991  0.25702845     0.02400
C1274       C  0.76097546  0.95726321  0.26771621    -0.33500
H1275       H  0.84138730  0.02529888  0.24576209     0.13500
H1276       H  0.86035836  0.07217073  0.22293235     0.13300
H1277       H  0.75056578  0.04637692  0.21613160     0.13100
H1278       H  0.73164674  0.99968934  0.23893027     0.12200
C1279       C  0.44348943  0.32538270  0.09029898     0.18500
C1280       C  0.41747848  0.28991502  0.08626239    -0.10600
C1281       C  0.40356452  0.26389062  0.09952051    -0.11500
C1282       C  0.41553951  0.27322491  0.11688053     0.20100
C1283       C  0.44188436  0.30858011  0.12088008    -0.13500
C1284       C  0.45581386  0.33460151  0.10762012    -0.11800
C1285       C  0.40001669  0.24677437  0.13062147     0.01000
C1286       C  0.38605248  0.22432844  0.14194217    -0.31800
C1287       C  0.45634090  0.35264694  0.07687051     0.02400
C1288       C  0.46586554  0.37617686  0.06603610    -0.33500
H1289       H  0.40762439  0.28251087  0.07293646     0.13500
H1290       H  0.38316729  0.23664180  0.09628457     0.13300
H1291       H  0.45129940  0.31611465  0.13425932     0.13100
H1292       H  0.47579561  0.36197620  0.11090849     0.12200
C1293       C  0.45597558  0.12413392  0.08988627     0.18500
C1294       C  0.42379401  0.12368087  0.08623975    -0.10600
C1295       C  0.40745162  0.13376315  0.09917199    -0.11500
C1296       C  0.42313122  0.14429886  0.11585129     0.20100
C1297       C  0.45566190  0.14542613  0.11939754    -0.13500
C1298       C  0.47201890  0.13534790  0.10645773    -0.11800
C1299       C  0.40510371  0.15251740  0.12948210     0.01000
C1300       C  0.38918782  0.15829076  0.14089686    -0.31800
C1301       C  0.47113307  0.11086323  0.07702802     0.02400
C1302       C  0.48101981  0.09679050  0.06640610    -0.33500
H1303       H  0.41097770  0.11485611  0.07352572     0.13500
H1304       H  0.38228496  0.13271360  0.09627146     0.13300
H1305       H  0.46802627  0.15345541  0.13224695     0.13100
H1306       H  0.49675872  0.13561298  0.10948465     0.12200
C1307       C  0.25340612  0.99438491  0.23430306     0.18500
C1308       C  0.27984923  0.00058907  0.22188171    -0.10600
C1309       C  0.29432927  0.03145726  0.21137865    -0.11500
C1310       C  0.28253967  0.05637922  0.21324690     0.20100
C1311       C  0.25574428  0.04996317  0.22550171    -0.13500
C1312       C  0.24123968  0.01906037  0.23600721    -0.11800
C1313       C  0.29835738  0.08855177  0.20266684     0.01000
C1314       C  0.31298423  0.11444935  0.19315234    -0.31800
C1315       C  0.24039814  0.96406063  0.24607038     0.02400
C1316       C  0.23069134  0.94114714  0.25727350    -0.33500
H1317       H  0.28966219  0.98188727  0.22050943     0.13500
H1318       H  0.31500919  0.03609993  0.20193778     0.13300
H1319       H  0.24637936  0.06898990  0.22706766     0.13100
H1320       H  0.22097329  0.01469929  0.24564534     0.12200
C1321       C  0.45135794  0.32690059  0.35382642     0.18500
C1322       C  0.43777570  0.33742083  0.36793015    -0.10600
C1323       C  0.40186758  0.32923654  0.36787996    -0.11500
C1324       C  0.37922214  0.31040035  0.35374948     0.20100
C1325       C  0.39268842  0.29943811  0.33978045    -0.13500
C1326       C  0.42854641  0.30760761  0.33983114    -0.11800
C1327       C  0.34314859  0.30475819  0.35293445     0.01000
C1328       C  0.31459683  0.30365429  0.35147223    -0.31800
C1329       C  0.48865536  0.33614005  0.35341918     0.02400
C1330       C  0.51907269  0.34206862  0.35152988    -0.33500
H1331       H  0.45501920  0.35232291  0.37883682     0.13500
H1332       H  0.39195302  0.33816385  0.37870091     0.13300
H1333       H  0.37566261  0.28515241  0.32869971     0.13100
H1334       H  0.43861441  0.29927565  0.32883516     0.12200
C1335       C  0.89136345  0.33625366  0.30871492     0.18500
C1336       C  0.90041064  0.31290370  0.30025134    -0.10600
C1337       C  0.93552950  0.31891927  0.30127270    -0.11500
C1338       C  0.96189498  0.34831713  0.31076733     0.20100
C1339       C  0.95296778  0.37197169  0.31899309    -0.13500
C1340       C  0.91787462  0.36597308  0.31796267    -0.11800
C1341       C  0.99735434  0.35284064  0.31288865     0.01000
C1342       C  0.02546650  0.35337773  0.31515992    -0.31800
C1343       C  0.85472984  0.32907283  0.30868662     0.02400
C1344       C  0.82477760  0.32456524  0.31026700    -0.33500
H1345       H  0.88022394  0.28975059  0.29312674     0.13500
H1346       H  0.94195689  0.30027173  0.29493256     0.13300
H1347       H  0.97294044  0.39465726  0.32646275     0.13100
H1348       H  0.91126327  0.38417077  0.32463850     0.12200
C1349       C  0.08389753  0.42138329  0.42431810     0.18500
C1350       C  0.10719976  0.45627187  0.43046316    -0.10600
C1351       C  0.09497188  0.47266516  0.44234156    -0.11500
C1352       C  0.05931088  0.45432056  0.44813172     0.20100
C1353       C  0.03606538  0.41934956  0.44206174    -0.13500
C1354       C  0.04828660  0.40296453  0.43018447    -0.11800
C1355       C  0.04655090  0.47094598  0.46047407     0.01000
C1356       C  0.03432986  0.48244772  0.47130344    -0.31800
C1357       C  0.09624672  0.40503589  0.41159977     0.02400
C1358       C  0.10662812  0.39265959  0.40029878    -0.33500
H1359       H  0.13475362  0.47087113  0.42599688     0.13500
H1360       H  0.11327357  0.49962507  0.44696898     0.13300
H1361       H  0.00847437  0.40478498  0.44648080     0.13100
H1362       H  0.02993777  0.37605176  0.42551046     0.12200
C1363       C  0.39814670  0.46886206  0.44946463     0.18500
C1364       C  0.36362835  0.46041380  0.45482682    -0.10600
C1365       C  0.33616173  0.45078928  0.44239647    -0.11500
C1366       C  0.34292482  0.44955688  0.42445717     0.20100
C1367       C  0.37751142  0.45821487  0.41909606    -0.13500
C1368       C  0.40497278  0.46785006  0.43152265    -0.11800
C1369       C  0.31413481  0.43770076  0.41165757     0.01000
C1370       C  0.29017912  0.42513480  0.40084854    -0.31800
C1371       C  0.42625977  0.47784850  0.46236031     0.02400
C1372       C  0.44944977  0.48468212  0.47322841    -0.33500
H1373       H  0.35785473  0.46095334  0.46863186     0.13500
H1374       H  0.30957223  0.44392315  0.44679771     0.13300
H1375       H  0.38316259  0.45713250  0.40532003     0.13100
H1376       H  0.43143289  0.47419612  0.42714883     0.12200
C1377       C  0.99736819  0.20880365  0.24256042     0.18500
C1378       C  0.00598393  0.22723644  0.22647937    -0.10600
C1379       C  0.97930971  0.21934477  0.21382906    -0.11500
C1380       C  0.94363778  0.19293138  0.21709248     0.20100
C1381       C  0.93496392  0.17431088  0.23313855    -0.13500
C1382       C  0.96168793  0.18224946  0.24582330    -0.11800
C1383       C  0.91616251  0.18507466  0.20396788     0.01000
C1384       C  0.89368006  0.17866684  0.19275145    -0.31800
C1385       C  0.02490112  0.21864553  0.25590812     0.02400
C1386       C  0.04860469  0.23049331  0.26685829    -0.33500
H1387       H  0.03331142  0.24800224  0.22377931     0.13500
H1388       H  0.98649699  0.23399047  0.20152660     0.13300
H1389       H  0.90754595  0.15380512  0.23587761     0.13100
H1390       H  0.95446760  0.16792403  0.25821324     0.12200
C1391       C  0.25767272  0.23642658  0.24340867     0.18500
C1392       C  0.27847344  0.25725954  0.22926718    -0.10600
C1393       C  0.29198014  0.24271205  0.21705342    -0.11500
C1394       C  0.28483514  0.20723500  0.21888756     0.20100
C1395       C  0.26408372  0.18638173  0.23304934    -0.13500
C1396       C  0.25055878  0.20094628  0.24527657    -0.11800
C1397       C  0.29920693  0.19267543  0.20628201     0.01000
C1398       C  0.31278047  0.18308732  0.19524303    -0.31800
C1399       C  0.24401530  0.25153279  0.25610317     0.02400
C1400       C  0.23293444  0.26352119  0.26724602    -0.33500
H1401       H  0.28429701  0.28473713  0.22769963     0.13500
H1402       H  0.30806532  0.25915554  0.20619541     0.13300
H1403       H  0.25843838  0.15896874  0.23465424     0.13100
H1404       H  0.23462865  0.18458827  0.25618975     0.12200
loop_ 
_geom_bond_atom_site_label_1 
_geom_bond_atom_site_label_2 
_geom_bond_distance 
_geom_bond_site_symmetry_2 
_ccdc_geom_bond_type 
O1           Mg3   2.154       .  S
O1           Mg9   2.154       .  S
O1           C36   1.236       .  S
C2           O15   1.235       .  S
C2           O39   1.269       .  A
C2           H41   1.081       .  S
Mg3          O32   2.167       .  S
Mg3          O47   2.324       .  S
Mg3          O43   2.269       .  S
Mg3          O14   2.298       .  S
O4          Mg46   2.167       .  S
O4          Mg29   2.167       .  S
O4           C25   1.237       .  S
O5           C36   1.270       .  A
O5          Mg29   2.301       .  S
C6            O8   1.276       .  A
C6           O20   1.273       .  A
C6         C1370   1.447       .  S
O7           C35   1.272       .  A
O7           Mg9   2.304       .  S
O8          Mg40   2.311       .  S
Mg9          O15   2.144       .  S
Mg9          O23   2.265       .  S
Mg9          O11   2.301       .  S
C10          O48   1.271       .  A
C10          O16   1.275       .  A
C10        C1328   1.443       .  S
O11          C18   1.273       .  A
H12          C25   1.081       .  S
C13          O27   1.236       .  S
C13          O28   1.270       .  A
C13          H38   1.081       .  S
O14          C37   1.270       .  A
O15         Mg29   2.161       .  S
O16         Mg46   2.318       .  S
C17          O30   1.271       .  A
C17          O22   1.277       .  A
C17        C1400   1.439       .  S
C18          O45   1.276       .  A
C18        C1386   1.447       .  S
Mg19         O26   2.149       .  S
Mg19         O27   2.156       .  S
Mg19         O20   2.301       .  S
Mg19         O21   2.302       .  S
Mg19         O48   2.272       .  S
O21          C25   1.271       .  A
O22         Mg29   2.323       .  S
O23          C42   1.270       .  A
O24          C44   1.277       .  A
O24         Mg40   2.323       .  S
O26         Mg40   2.162       .  S
O26          C37   1.235       .  S
O27         Mg46   2.154       .  S
O28         Mg40   2.301       .  S
Mg29         O45   2.312       .  S
O30         Mg46   2.264       .  S
H31          C36   1.081       .  S
O32         Mg40   2.171       .  S
O32          C35   1.237       .  S
H33          C35   1.081       .  S
H34          C37   1.081       .  S
O39         Mg46   2.295       .  S
C42          O47   1.276       .  A
C42        C1342   1.442       .  S
O43          C44   1.272       .  A
C44        C1358   1.441       .  S
C49        C1314   1.446       .  S
C49          C50   1.411       .  A
C49          C54   1.404       .  A
C50        C1398   1.448       .  S
C50          C51   1.403       .  A
C51          H56   1.085       .  S
C51          C52   1.402       .  A
C52        C1286   1.444       .  S
C52          C53   1.408       .  A
C53        C1300   1.448       .  S
C53          C54   1.402       .  A
C54          H55   1.085       .  S
C57        C1384   1.456       .  S
C57          C58   1.410       .  A
C57          C62   1.404       .  A
C58        C1272   1.446       .  S
C58          C59   1.405       .  A
C59          H64   1.085       .  S
C59          C60   1.404       .  A
C60        C1260   1.456       .  S
C60          C61   1.413       .  A
C61        C1244   1.448       .  S
C61          C62   1.408       .  A
C62          H63   1.085       .  S
O65         Mg67   2.154       .  S
O65         Mg73   2.159       .  S
O65         C100   1.235       .  S
C66          O79   1.235       .  S
C66         O103   1.269       .  A
C66         H105   1.081       .  S
Mg67         O96   2.159       .  S
Mg67        O111   2.287       .  S
Mg67        O107   2.262       .  S
Mg67         O78   2.292       .  S
O68        Mg110   2.159       .  S
O68         Mg93   2.147       .  S
O68          C89   1.237       .  S
O69         C100   1.270       .  A
O69         Mg93   2.301       .  S
C70          O72   1.274       .  A
C70          O84   1.274       .  A
C70        C1230   1.440       .  S
O71          C99   1.271       .  A
O71         Mg73   2.303       .  S
O72        Mg104   2.285       .  S
Mg73         O79   2.138       .  S
Mg73         O87   2.269       .  S
Mg73         O75   2.315       .  S
C74         O112   1.270       .  A
C74          O80   1.270       .  A
C74        C1190   1.431       .  S
O75          C82   1.276       .  A
H76          C89   1.081       .  S
C77          O91   1.235       .  S
C77          O92   1.269       .  A
C77         H102   1.081       .  S
O78         C101   1.269       .  A
O79         Mg93   2.159       .  S
O80        Mg110   2.283       .  S
C81          O94   1.270       .  A
C81          O86   1.275       .  A
C81        C1202   1.440       .  S
C82         O109   1.272       .  A
C82        C1216   1.439       .  S
Mg83         O90   2.135       .  S
Mg83         O91   2.157       .  S
Mg83         O84   2.306       .  S
Mg83         O85   2.299       .  S
Mg83        O112   2.263       .  S
O85          C89   1.271       .  A
O86         Mg93   2.322       .  S
O87         C106   1.270       .  A
O88         C108   1.275       .  A
O88        Mg104   2.315       .  S
O90        Mg104   2.159       .  S
O90         C101   1.235       .  S
O91        Mg110   2.147       .  S
O92        Mg104   2.296       .  S
Mg93        O109   2.271       .  S
O94        Mg110   2.258       .  S
H95         C100   1.081       .  S
O96        Mg104   2.154       .  S
O96          C99   1.237       .  S
H97          C99   1.081       .  S
H98         C101   1.081       .  S
O103       Mg110   2.292       .  S
C106        O111   1.271       .  A
C106       C1174   1.432   1_565  S
O107        C108   1.270       .  A
C108       C1316   1.438       .  S
O113       Mg115   2.148       .  S
O113       Mg121   2.157       .  S
O113        C148   1.236       .  S
C114        O127   1.235       .  S
C114        O151   1.269       .  A
C114        H153   1.081       .  S
Mg115       O144   2.158       .  S
Mg115       O159   2.285       .  S
Mg115       O155   2.253       .  S
Mg115       O126   2.292       .  S
O116       Mg158   2.158       .  S
O116       Mg141   2.153       .  S
O116        C137   1.238       .  S
O117        C148   1.270       .  A
O117       Mg141   2.299       .  S
C118        O120   1.274       .  A
C118        O132   1.274       .  A
C118       C1274   1.439       .  S
O119        C147   1.271       .  A
O119       Mg121   2.303       .  S
O120       Mg152   2.284       .  S
Mg121       O127   2.134       .  S
Mg121       O135   2.266       .  S
Mg121       O123   2.305       .  S
C122        O160   1.269       .  A
C122        O128   1.271       .  A
C122       C1106   1.429       .  S
O123        C130   1.274       .  A
H124        C137   1.081       .  S
C125        O139   1.234       .  S
C125        O140   1.268       .  A
C125        H150   1.081       .  S
O126        C149   1.269       .  A
O127       Mg141   2.159       .  S
O128       Mg158   2.285       .  S
C129        O142   1.269       .  A
C129        O134   1.275       .  A
C129       C1134   1.435       .  S
C130        O157   1.274       .  A
C130       C1146   1.442       .  S
Mg131       O138   2.135       .  S
Mg131       O139   2.152       .  S
Mg131       O132   2.302       .  S
Mg131       O133   2.302       .  S
Mg131       O160   2.261       .  S
O133        C137   1.272       .  A
O134       Mg141   2.315       .  S
O135        C154   1.270       .  A
O136        C156   1.275       .  A
O136       Mg152   2.315       .  S
O138       Mg152   2.163       .  S
O138        C149   1.235       .  S
O139       Mg158   2.141       .  S
O140       Mg152   2.295       .  S
Mg141       O157   2.289       .  S
O142       Mg158   2.252       .  S
H143        C148   1.081       .  S
O144       Mg152   2.154       .  S
O144        C147   1.237       .  S
H145        C147   1.081       .  S
H146        C149   1.081       .  S
O151       Mg158   2.290       .  S
C154        O159   1.270       .  A
C154       C1120   1.432       .  S
O155        C156   1.269       .  A
C156       C1160   1.436       .  S
C161       C1232   1.448       .  S
C161        C162   1.410       .  A
C161        C166   1.405       .  A
C162       C1162   1.444       .  S
C162        C163   1.401       .  A
C163        H168   1.085       .  S
C163        C164   1.399       .  A
C164       C1092   1.445       .  S
C164        C165   1.408       .  A
C165       C1076   1.445       .  S
C165        C166   1.405       .  A
C166        H167   1.085       .  S
O169       Mg171   2.148   1_544  S
O169       Mg177   2.157   1_545  S
O169        C204   1.236       .  S
C170        O183   1.236   1_565  S
C170        O207   1.270       .  A
C170        H209   1.081       .  S
Mg171       O200   2.161       .  S
Mg171       O215   2.315   1_556  S
Mg171       O211   2.270       .  S
Mg171       O182   2.298   1_565  S
O172       Mg214   2.159       .  S
O172       Mg197   2.157       .  S
O172        C193   1.237   1_554  S
O173        C204   1.271       .  A
O173       Mg197   2.300       .  S
C174        O176   1.273       .  A
C174        O188   1.273       .  A
C174       C1062   1.439       .  S
O175        C203   1.270       .  A
O175       Mg177   2.297       .  S
O176       Mg208   2.285       .  S
Mg177       O183   2.156   1_565  S
Mg177       O191   2.275       .  S
Mg177       O179   2.288   1_565  S
C178        O216   1.271       .  A
C178        O184   1.276       .  A
C178       C1020   1.444       .  S
O179        C186   1.272       .  A
H180        C193   1.081       .  S
C181        O195   1.237       .  S
C181        O196   1.272       .  A
C181        H206   1.081   1_556  S
O182        C205   1.269       .  A
O183       Mg197   2.165       .  S
O184       Mg214   2.324   1_556  S
C185        O198   1.274       .  A
C185        O190   1.277       .  A
C185       C1258   1.447       .  S
C186        O213   1.274       .  A
C186       C1302   1.439       .  S
Mg187       O194   2.155       .  S
Mg187       O195   2.159       .  S
Mg187       O188   2.299       .  S
Mg187       O189   2.301   1_565  S
Mg187       O216   2.276   1_565  S
O189        C193   1.271       .  A
O190       Mg197   2.330       .  S
O191        C210   1.271       .  A
O192        C212   1.277       .  A
O192       Mg208   2.330       .  S
O194       Mg208   2.163       .  S
O194        C205   1.235   1_565  S
O195       Mg214   2.161   1_566  S
O196       Mg208   2.306       .  S
Mg197       O213   2.291       .  S
O198       Mg214   2.286       .  S
H199        C204   1.081   1_556  S
O200       Mg208   2.151       .  S
O200        C203   1.236   1_556  S
H201        C203   1.081   1_556  S
H202        C205   1.081       .  S
O207       Mg214   2.299   1_565  S
C210        O215   1.274       .  A
C210       C1034   1.442       .  S
O211        C212   1.272       .  A
C212       C1050   1.443       .  S
O217       Mg219   2.150   1_556  S
O217       Mg225   2.157       .  S
O217        C252   1.236       .  S
C218        O231   1.235       .  S
C218        O255   1.269       .  A
C218        H257   1.081       .  S
Mg219       O248   2.155       .  S
Mg219       O263   2.295       .  S
Mg219       O259   2.263       .  S
Mg219       O230   2.295       .  S
O220       Mg262   2.158       .  S
O220       Mg245   2.147       .  S
O220        C241   1.237   1_556  S
O221        C252   1.270       .  A
O221       Mg245   2.301       .  S
C222        O224   1.271       .  A
C222        O236   1.274       .  A
C222       C1288   1.435       .  S
O223        C251   1.271   1_556  A
O223       Mg225   2.300       .  S
O224       Mg256   2.269       .  S
Mg225       O231   2.136       .  S
Mg225       O239   2.259       .  S
Mg225       O227   2.303       .  S
C226        O264   1.270       .  A
C226        O232   1.271   1_554  A
C226        C964   1.433       .  S
O227        C234   1.274       .  A
H228        C241   1.081   1_556  S
C229        O243   1.235       .  S
C229        O244   1.268       .  A
C229        H254   1.081   1_554  S
O230        C253   1.269       .  A
O231       Mg245   2.157       .  S
O232       Mg262   2.289       .  S
C233        O246   1.269       .  A
C233        O238   1.275       .  A
C233       C1008   1.434       .  S
C234        O261   1.272       .  A
C234        C992   1.438       .  S
Mg235       O242   2.141       .  S
Mg235       O243   2.154       .  S
Mg235       O236   2.302       .  S
Mg235       O237   2.300       .  S
Mg235       O264   2.266       .  S
O237        C241   1.271       .  A
O238       Mg245   2.315       .  S
O239        C258   1.269       .  A
O240        C260   1.273       .  A
O240       Mg256   2.306       .  S
O242       Mg256   2.162       .  S
O242        C253   1.236       .  S
O243       Mg262   2.138   1_554  S
O244       Mg256   2.293       .  S
Mg245       O261   2.277       .  S
O246       Mg262   2.247       .  S
H247        C252   1.081   1_554  S
O248       Mg256   2.146       .  S
O248        C251   1.236       .  S
H249        C251   1.081       .  S
H250        C253   1.081       .  S
O255       Mg262   2.292       .  S
C258        O263   1.272   1_556  A
C258        C980   1.432       .  S
O259        C260   1.270       .  A
C260       C1090   1.436       .  S
O265       Mg267   2.149   1_456  S
O265       Mg273   2.155   1_455  S
O265        C300   1.235       .  S
C266        O279   1.236   1_655  S
C266        O303   1.269       .  A
C266        H305   1.081       .  S
Mg267       O296   2.158       .  S
Mg267       O311   2.283       .  S
Mg267       O307   2.257       .  S
Mg267       O278   2.289   1_655  S
O268       Mg310   2.158   1_455  S
O268       Mg293   2.153       .  S
O268        C289   1.237       .  S
O269        C300   1.269       .  A
O269       Mg293   2.299       .  S
C270        O272   1.273       .  A
C270        O284   1.274       .  A
C270       C1078   1.437       .  S
O271        C299   1.271       .  A
O271       Mg273   2.303       .  S
O272       Mg304   2.278       .  S
Mg273       O279   2.144   1_655  S
Mg273       O287   2.274       .  S
Mg273       O275   2.309   1_655  S
C274        O312   1.270       .  A
C274        O280   1.271   1_554  A
C274        C922   1.433       .  S
O275        C282   1.275       .  A
H276        C289   1.081       .  S
C277        O291   1.235   1_556  S
C277        O292   1.269   1_556  A
C277        H302   1.081       .  S
O278        C301   1.268       .  A
O279       Mg293   2.163       .  S
O280       Mg310   2.287   1_455  S
C281        O294   1.269       .  A
C281        O286   1.276       .  A
C281        C936   1.440       .  S
C282        O309   1.274       .  A
C282        C950   1.441       .  S
Mg283       O290   2.135       .  S
Mg283       O291   2.155       .  S
Mg283       O284   2.301       .  S
Mg283       O285   2.302   1_655  S
Mg283       O312   2.268   1_655  S
O285        C289   1.272   1_554  A
O286       Mg293   2.326       .  S
O287        C306   1.271       .  A
O288        C308   1.276       .  A
O288       Mg304   2.322       .  S
O290       Mg304   2.161       .  S
O290        C301   1.235   1_655  S
O291       Mg310   2.144   1_554  S
O292       Mg304   2.298       .  S
Mg293       O309   2.283       .  S
O294       Mg310   2.255   1_455  S
H295        C300   1.081   1_554  S
O296       Mg304   2.151       .  S
O296        C299   1.237   1_554  S
H297        C299   1.081   1_554  S
H298        C301   1.081       .  S
O303       Mg310   2.294       .  S
C306        O311   1.270   1_556  A
C306        C908   1.433       .  S
O307        C308   1.270       .  A
C308       C1246   1.439       .  S
O313       Mg315   2.140       .  S
O313       Mg321   2.150       .  S
O313        C348   1.235       .  S
C314        O327   1.235       .  S
C314        O351   1.268       .  A
C314        H353   1.081       .  S
Mg315       O344   2.156       .  S
Mg315       O359   2.291       .  S
Mg315       O355   2.255       .  S
Mg315       O326   2.293       .  S
O316       Mg358   2.156       .  S
O316       Mg341   2.144       .  S
O316        C337   1.236       .  S
O317        C348   1.269       .  A
O317       Mg341   2.295       .  S
C318        O320   1.273       .  A
C318        O332   1.274       .  A
C318        C896   1.441       .  S
O319        C347   1.272       .  A
O319       Mg321   2.304       .  S
O320       Mg352   2.282       .  S
Mg321       O327   2.133       .  S
Mg321       O335   2.264       .  S
Mg321       O323   2.307       .  S
C322        O360   1.269       .  A
C322        O328   1.269       .  A
C322        C824   1.427       .  S
O323        C330   1.275       .  A
H324        C337   1.081       .  S
C325        O339   1.235       .  S
C325        O340   1.270       .  A
C325        H350   1.081       .  S
O326        C349   1.269       .  A
O327       Mg341   2.161       .  S
O328       Mg358   2.274       .  S
C329        O342   1.270       .  A
C329        O334   1.276       .  A
C329        C868   1.439       .  S
C330        O357   1.273       .  A
C330        C852   1.436       .  S
Mg331       O338   2.133       .  S
Mg331       O339   2.161       .  S
Mg331       O332   2.309       .  S
Mg331       O333   2.300       .  S
Mg331       O360   2.259       .  S
O333        C337   1.271       .  A
O334       Mg341   2.320       .  S
O335        C354   1.270       .  A
O336        C356   1.274       .  A
O336       Mg352   2.311       .  S
O338       Mg352   2.157       .  S
O338        C349   1.236       .  S
O339       Mg358   2.151       .  S
O340       Mg352   2.299       .  S
Mg341       O357   2.274       .  S
O342       Mg358   2.259       .  S
H343        C348   1.081       .  S
O344       Mg352   2.153       .  S
O344        C347   1.238       .  S
H345        C347   1.081       .  S
H346        C349   1.081       .  S
O351       Mg358   2.289       .  S
C354        O359   1.272       .  A
C354        C838   1.432       .  S
O355        C356   1.269       .  A
C356        C882   1.435       .  S
C361        C952   1.450       .  S
C361        C362   1.409       .  A
C361        C366   1.405       .  A
C362       C1006   1.443       .  S
C362        C363   1.400       .  A
C363        H368   1.085       .  S
C363        C364   1.400       .  A
C364        C866   1.447       .  S
C364        C365   1.410       .  A
C365        C810   1.447       .  S
C365        C366   1.406       .  A
C366        H367   1.085       .  S
C369       C1048   1.451       .  S
C369        C370   1.413       .  A
C369        C374   1.404       .  A
C370        C938   1.447       .  S
C370        C371   1.405       .  A
C371        H376   1.085       .  S
C371        C372   1.402       .  A
C372        C796   1.451       .  S
C372        C373   1.408       .  A
C373        C854   1.445       .  S
C373        C374   1.404       .  A
C374        H375   1.085       .  S
O377       Mg379   2.145       .  S
O377       Mg385   2.157       .  S
O377        C412   1.235       .  S
C378        O391   1.234       .  S
C378        O415   1.268       .  A
C378        H417   1.081       .  S
Mg379       O408   2.155       .  S
Mg379       O423   2.282       .  S
Mg379       O419   2.257       .  S
Mg379       O390   2.293       .  S
O380       Mg422   2.163       .  S
O380       Mg405   2.158       .  S
O380        C401   1.238       .  S
O381        C412   1.269       .  A
O381       Mg405   2.297       .  S
C382        O384   1.272       .  A
C382        O396   1.274       .  A
C382        C768   1.437       .  S
O383        C411   1.271       .  A
O383       Mg385   2.297       .  S
O384       Mg416   2.273       .  S
Mg385       O391   2.133       .  S
Mg385       O399   2.260       .  S
Mg385       O387   2.299       .  S
C386        O424   1.270       .  A
C386        O392   1.271       .  A
C386        C728   1.434   1_545  S
O387        C394   1.273       .  A
H388        C401   1.081       .  S
C389        O403   1.235       .  S
C389        O404   1.270       .  A
C389        H414   1.081       .  S
O390        C413   1.269       .  A
O391       Mg405   2.157       .  S
O392       Mg422   2.292       .  S
C393        O406   1.270       .  A
C393        O398   1.277       .  A
C393        C754   1.439       .  S
C394        O421   1.275       .  A
C394        C812   1.440       .  S
Mg395       O402   2.138       .  S
Mg395       O403   2.155       .  S
Mg395       O396   2.306       .  S
Mg395       O397   2.305       .  S
Mg395       O424   2.266       .  S
O397        C401   1.272       .  A
O398       Mg405   2.325       .  S
O399        C418   1.269       .  A
O400        C420   1.275       .  A
O400       Mg416   2.322       .  S
O402       Mg416   2.160       .  S
O402        C413   1.236       .  S
O403       Mg422   2.152       .  S
O404       Mg416   2.301       .  S
Mg405       O421   2.292       .  S
O406       Mg422   2.257       .  S
H407        C412   1.081       .  S
O408       Mg416   2.141       .  S
O408        C411   1.237       .  S
H409        C411   1.081       .  S
H410        C413   1.081       .  S
O415       Mg422   2.289       .  S
C418        O423   1.270       .  A
C418        C740   1.429       .  S
O419        C420   1.270       .  A
C420        C784   1.438       .  S
O425       Mg427   2.161       .  S
O425       Mg433   2.159       .  S
O425        C460   1.237       .  S
C426        O439   1.235       .  S
C426        O463   1.269       .  A
C426        H465   1.081       .  S
Mg427       O456   2.164       .  S
Mg427       O471   2.322       .  S
Mg427       O467   2.282       .  S
Mg427       O438   2.299       .  S
O428       Mg470   2.162       .  S
O428       Mg453   2.156       .  S
O428        C449   1.236       .  S
O429        C460   1.271       .  A
O429       Mg453   2.303       .  S
C430        O432   1.274       .  A
C430        O444   1.273       .  A
C430        C798   1.442       .  S
O431        C459   1.271       .  A
O431       Mg433   2.303       .  S
O432       Mg464   2.295       .  S
Mg433       O439   2.150       .  S
Mg433       O447   2.266       .  S
Mg433       O435   2.303       .  S
C434        O472   1.271       .  A
C434        O440   1.276       .  A
C434        C656   1.442       .  S
O435        C442   1.273       .  A
H436        C449   1.081       .  S
C437        O451   1.236       .  S
C437        O452   1.271       .  A
C437        H462   1.081       .  S
O438        C461   1.269       .  A
O439       Mg453   2.161       .  S
O440       Mg470   2.320       .  S
C441        O454   1.274       .  A
C441        O446   1.277       .  A
C441        C712   1.444       .  S
C442        O469   1.274       .  A
C442        C698   1.445       .  S
Mg443       O450   2.155       .  S
Mg443       O451   2.161       .  S
Mg443       O444   2.297       .  S
Mg443       O445   2.298       .  S
Mg443       O472   2.269       .  S
O445        C449   1.270       .  A
O446       Mg453   2.325       .  S
O447        C466   1.270       .  A
O448        C468   1.277       .  A
O448       Mg464   2.328       .  S
O450       Mg464   2.163       .  S
O450        C461   1.235       .  S
O451       Mg470   2.161       .  S
O452       Mg464   2.304       .  S
Mg453       O469   2.300       .  S
O454       Mg470   2.281       .  S
H455        C460   1.081       .  S
O456       Mg464   2.161       .  S
O456        C459   1.237       .  S
H457        C459   1.081       .  S
H458        C461   1.081       .  S
O463       Mg470   2.297       .  S
C466        O471   1.275       .  A
C466        C672   1.442       .  S
O467        C468   1.273       .  A
C468        C686   1.446       .  S
C473       C1064   1.449       .  S
C473        C474   1.408       .  A
C473        C478   1.401       .  A
C474        C994   1.447       .  S
C474        C475   1.404       .  A
C475        H480   1.085       .  S
C475        C476   1.405       .  A
C476        C684   1.453       .  S
C476        C477   1.413       .  A
C477        C756   1.447       .  S
C477        C478   1.404       .  A
C478        H479   1.085       .  S
C481       C1204   1.448       .  S
C481        C482   1.411       .  A
C481        C486   1.405       .  A
C482       C1356   1.449       .  S
C482        C483   1.402   1_455  A
C483        H488   1.085       .  S
C483        C484   1.403       .  A
C484        C782   1.446       .  S
C484        C485   1.410       .  A
C485        C714   1.450       .  S
C485        C486   1.404   1_655  A
C486        H487   1.085       .  S
C489       C1148   1.451       .  S
C489        C490   1.412       .  A
C489        C494   1.408       .  A
C490       C1372   1.455       .  S
C490        C491   1.406       .  A
C491        H496   1.085       .  S
C491        C492   1.406       .  A
C492        C894   1.450       .  S
C492        C493   1.411       .  A
C493        C700   1.455       .  S
C493        C494   1.406       .  A
C494        H495   1.085       .  S
C497       C1132   1.444       .  S
C497        C498   1.409       .  A
C497        C502   1.402   1_565  A
C498       C1218   1.447       .  S
C498        C499   1.402       .  A
C499        H504   1.085       .  S
C499        C500   1.402   1_565  A
C500        C880   1.444       .  S
C500        C501   1.409       .  A
C501        C770   1.447       .  S
C501        C502   1.402       .  A
C502        H503   1.085       .  S
O505       Mg507   2.141   1_565  S
O505       Mg513   2.155   1_556  S
O505        C540   1.237       .  S
C506        O519   1.236       .  S
C506        O543   1.270       .  A
C506        H545   1.081       .  S
Mg507       O536   2.164   1_556  S
Mg507       O551   2.326   1_556  S
Mg507       O547   2.272   1_556  S
Mg507       O518   2.299       .  S
O508       Mg550   2.162   1_556  S
O508       Mg533   2.145       .  S
O508        C529   1.234       .  S
O509        C540   1.270       .  A
O509       Mg533   2.296   1_455  S
C510        O512   1.270   1_655  A
C510        O524   1.270       .  A
C510        C910   1.434       .  S
O511        C539   1.269   1_565  A
O511       Mg513   2.293       .  S
O512       Mg544   2.271       .  S
Mg513       O519   2.149   1_455  S
Mg513       O527   2.263       .  S
Mg513       O515   2.288   1_554  S
C514        O552   1.270       .  A
C514        O520   1.278   1_545  A
C514       C1022   1.443       .  S
O515        C522   1.271       .  A
H516        C529   1.081       .  S
C517        O531   1.238       .  S
C517        O532   1.272       .  A
C517        H542   1.081       .  S
O518        C541   1.270       .  A
O519       Mg533   2.158   1_554  S
O520       Mg550   2.338   1_556  S
C521        O534   1.273       .  A
C521        O526   1.272       .  A
C521        C978   1.433       .  S
C522        O549   1.270   1_455  A
C522        C924   1.433       .  S
Mg523       O530   2.145   1_655  S
Mg523       O531   2.159   1_556  S
Mg523       O524   2.285   1_556  S
Mg523       O525   2.292       .  S
Mg523       O552   2.257       .  S
O525        C529   1.268   1_545  A
O526       Mg533   2.287       .  S
O527        C546   1.270       .  A
O528        C548   1.272       .  A
O528       Mg544   2.292       .  S
O530       Mg544   2.154   1_556  S
O530        C541   1.235       .  S
O531       Mg550   2.148   1_545  S
O532       Mg544   2.302   1_655  S
Mg533       O549   2.269       .  S
O534       Mg550   2.278   1_556  S
H535        C540   1.081       .  S
O536       Mg544   2.145       .  S
O536        C539   1.235       .  S
H537        C539   1.081       .  S
H538        C541   1.081       .  S
O543       Mg550   2.302       .  S
C546        O551   1.276   1_565  A
C546       C1036   1.441       .  S
O547        C548   1.272       .  A
C548        C966   1.433       .  S
O553       Mg555   2.129       .  S
O553       Mg561   2.158       .  S
O553        C588   1.235       .  S
C554        O567   1.237       .  S
C554        O591   1.271       .  A
C554        H593   1.081       .  S
Mg555       O584   2.152       .  S
Mg555       O599   2.294       .  S
Mg555       O595   2.249       .  S
Mg555       O566   2.301       .  S
O556       Mg598   2.157       .  S
O556       Mg581   2.151       .  S
O556        C577   1.235       .  S
O557        C588   1.268       .  A
O557       Mg581   2.291       .  S
C558        O560   1.269       .  A
C558        O572   1.274       .  A
C558       C1104   1.430       .  S
O559        C587   1.269       .  A
O559       Mg561   2.296       .  S
O560       Mg592   2.249       .  S
Mg561       O567   2.160       .  S
Mg561       O575   2.304       .  S
Mg561       O563   2.310       .  S
C562        O600   1.273       .  A
C562        O568   1.272       .  A
C562       C1344   1.442       .  S
O563        C570   1.275       .  A
H564        C577   1.081       .  S
C565        O579   1.235       .  S
C565        O580   1.269       .  A
C565        H590   1.081       .  S
O566        C589   1.271       .  A
O567       Mg581   2.166       .  S
O568       Mg598   2.297       .  S
C569        O582   1.267       .  A
C569        O574   1.273       .  A
C569       C1188   1.431       .  S
C570        O597   1.270       .  A
C570       C1118   1.433       .  S
Mg571       O578   2.155       .  S
Mg571       O579   2.155       .  S
Mg571       O572   2.303       .  S
Mg571       O573   2.300       .  S
Mg571       O600   2.293       .  S
O573        C577   1.270       .  A
O574       Mg581   2.303       .  S
O575        C594   1.275       .  A
O576        C596   1.272       .  A
O576       Mg592   2.300       .  S
O578       Mg592   2.163       .  S
O578        C589   1.237       .  S
O579       Mg598   2.129       .  S
O580       Mg592   2.292       .  S
Mg581       O597   2.254       .  S
O582       Mg598   2.243       .  S
H583        C588   1.081       .  S
O584       Mg592   2.143       .  S
O584        C587   1.235       .  S
H585        C587   1.081       .  S
H586        C589   1.081       .  S
O591       Mg598   2.301       .  S
C594        O599   1.272       .  A
C594       C1330   1.443       .  S
O595        C596   1.268       .  A
C596       C1176   1.432       .  S
O601       Mg603   2.135       .  S
O601       Mg609   2.162       .  S
O601        C636   1.235       .  S
C602        O615   1.236       .  S
C602        O639   1.271       .  A
C602        H641   1.081       .  S
Mg603       O632   2.151       .  S
Mg603       O647   2.298       .  S
Mg603       O643   2.251       .  S
Mg603       O614   2.298       .  S
O604       Mg646   2.154       .  S
O604       Mg629   2.145       .  S
O604        C625   1.236       .  S
O605        C636   1.269       .  A
O605       Mg629   2.294       .  S
C606        O608   1.269       .  A
C606        O620   1.274       .  A
C606        C826   1.427       .  S
O607        C635   1.268       .  A
O607       Mg609   2.294       .  S
O608       Mg640   2.245       .  S
Mg609       O615   2.164       .  S
Mg609       O623   2.295       .  S
Mg609       O611   2.305       .  S
C610        O648   1.274       .  A
C610        O616   1.272       .  A
C610        C670   1.442       .  S
O611        C618   1.274       .  A
H612        C625   1.081       .  S
C613        O627   1.236       .  S
C613        O628   1.269       .  A
C613        H638   1.081       .  S
O614        C637   1.270       .  A
O615       Mg629   2.166       .  S
O616       Mg646   2.293       .  S
C617        O630   1.268       .  A
C617        O622   1.272       .  A
C617        C726   1.435       .  S
C618        O645   1.268       .  A
C618        C840   1.431       .  S
Mg619       O626   2.155       .  S
Mg619       O627   2.157       .  S
Mg619       O620   2.299       .  S
Mg619       O621   2.299       .  S
Mg619       O648   2.297       .  S
O621        C625   1.270       .  A
O622       Mg629   2.301       .  S
O623        C642   1.274       .  A
O624        C644   1.273       .  A
O624       Mg640   2.303       .  S
O626       Mg640   2.162       .  S
O626        C637   1.236       .  S
O627       Mg646   2.131       .  S
O628       Mg640   2.293       .  S
Mg629       O645   2.244       .  S
O630       Mg646   2.256       .  S
H631        C636   1.081       .  S
O632       Mg640   2.138       .  S
O632        C635   1.234       .  S
H633        C635   1.081       .  S
H634        C637   1.081       .  S
O639       Mg646   2.304       .  S
C642        O647   1.273       .  A
C642        C658   1.442       .  S
O643        C644   1.269       .  A
C644        C742   1.431       .  S
C649        C657   1.447       .  S
C649        C650   1.403       .  A
C649        C654   1.402       .  A
C650        H659   1.083       .  S
C650        C651   1.401       .  A
C651        H660   1.083       .  S
C651        C652   1.401       .  A
C652        C655   1.447       .  S
C652        C653   1.404       .  A
C653        H661   1.083       .  S
C653        C654   1.403       .  A
C654        H662   1.083       .  S
C655        C656   1.210   1_455  T
C657        C658   1.210       .  T
C663        C671   1.447       .  S
C663        C664   1.401       .  A
C663        C668   1.404       .  A
C664        H673   1.083       .  S
C664        C665   1.402       .  A
C665        H674   1.083       .  S
C665        C666   1.404       .  A
C666        C669   1.448       .  S
C666        C667   1.402       .  A
C667        H675   1.083       .  S
C667        C668   1.402       .  A
C668        H676   1.083       .  S
C669        C670   1.210       .  T
C671        C672   1.210       .  T
C677        C685   1.450       .  S
C677        C678   1.402       .  A
C677        C682   1.404       .  A
C678        H687   1.083       .  S
C678        C679   1.402       .  A
C679        H688   1.083       .  S
C679        C680   1.403       .  A
C680        C683   1.450       .  S
C680        C681   1.403       .  A
C681        H689   1.083       .  S
C681        C682   1.404       .  A
C682        H690   1.083       .  S
C683        C684   1.212       .  T
C685        C686   1.212       .  T
C691        C699   1.450       .  S
C691        C692   1.404       .  A
C691        C696   1.403       .  A
C692        H701   1.083       .  S
C692        C693   1.404       .  A
C693        H702   1.083       .  S
C693        C694   1.404       .  A
C694        C697   1.450       .  S
C694        C695   1.403       .  A
C695        H703   1.083       .  S
C695        C696   1.402       .  A
C696        H704   1.083       .  S
C697        C698   1.212       .  T
C699        C700   1.212       .  T
C705        C713   1.447       .  S
C705        C706   1.402       .  A
C705        C710   1.403       .  A
C706        H715   1.083       .  S
C706        C707   1.401       .  A
C707        H716   1.083       .  S
C707        C708   1.402       .  A
C708        C711   1.448       .  S
C708        C709   1.403       .  A
C709        H717   1.083       .  S
C709        C710   1.403       .  A
C710        H718   1.083       .  S
C711        C712   1.211       .  T
C713        C714   1.210       .  T
C719        C727   1.440       .  S
C719        C720   1.402       .  A
C719        C724   1.401       .  A
C720        H729   1.083       .  S
C720        C721   1.400       .  A
C721        H730   1.083       .  S
C721        C722   1.401       .  A
C722        C725   1.440       .  S
C722        C723   1.402       .  A
C723        H731   1.084       .  S
C723        C724   1.399       .  A
C724        H732   1.084       .  S
C725        C726   1.206       .  T
C727        C728   1.206       .  T
C733        C741   1.437       .  S
C733        C734   1.400       .  A
C733        C738   1.402       .  A
C734        H743   1.083       .  S
C734        C735   1.398       .  A
C735        H744   1.084       .  S
C735        C736   1.402       .  A
C736        C739   1.435   1_455  S
C736        C737   1.399       .  A
C737        H745   1.084       .  S
C737        C738   1.397       .  A
C738        H746   1.084       .  S
C739        C740   1.203       .  T
C741        C742   1.204       .  T
C747        C755   1.444       .  S
C747        C748   1.400       .  A
C747        C752   1.404       .  A
C748        H757   1.083       .  S
C748        C749   1.400       .  A
C749        H758   1.083       .  S
C749        C750   1.403   1_565  A
C750        C753   1.444       .  S
C750        C751   1.402       .  A
C751        H759   1.083       .  S
C751        C752   1.402   1_545  A
C752        H760   1.083       .  S
C753        C754   1.208       .  T
C755        C756   1.208       .  T
C761        C769   1.442       .  S
C761        C762   1.401       .  A
C761        C766   1.402       .  A
C762        H771   1.084       .  S
C762        C763   1.399       .  A
C763        H772   1.084       .  S
C763        C764   1.402       .  A
C764        C767   1.442       .  S
C764        C765   1.402       .  A
C765        H773   1.083       .  S
C765        C766   1.401       .  A
C766        H774   1.083       .  S
C767        C768   1.207       .  T
C769        C770   1.207       .  T
C775        C783   1.443       .  S
C775        C776   1.402       .  A
C775        C780   1.402       .  A
C776        H785   1.084       .  S
C776        C777   1.399       .  A
C777        H786   1.084       .  S
C777        C778   1.400       .  A
C778        C781   1.442       .  S
C778        C779   1.403       .  A
C779        H787   1.083       .  S
C779        C780   1.402       .  A
C780        H788   1.083       .  S
C781        C782   1.207       .  T
C783        C784   1.208       .  T
C789        C797   1.447       .  S
C789        C790   1.403   1_655  A
C789        C794   1.403       .  A
C790        H799   1.083       .  S
C790        C791   1.403       .  A
C791        H800   1.084       .  S
C791        C792   1.403       .  A
C792        C795   1.446       .  S
C792        C793   1.402       .  A
C793        H801   1.084       .  S
C793        C794   1.401   1_455  A
C794        H802   1.083       .  S
C795        C796   1.210       .  T
C797        C798   1.210       .  T
C803        C811   1.445   1_455  S
C803        C804   1.402       .  A
C803        C808   1.402       .  A
C804        H813   1.083   1_455  S
C804        C805   1.400       .  A
C805        H814   1.084       .  S
C805        C806   1.402       .  A
C806        C809   1.443       .  S
C806        C807   1.402       .  A
C807        H815   1.084       .  S
C807        C808   1.401       .  A
C808        H816   1.083       .  S
C809        C810   1.208       .  T
C811        C812   1.209       .  T
C817        C825   1.433       .  S
C817        C818   1.398       .  A
C817        C822   1.402       .  A
C818        H827   1.084       .  S
C818        C819   1.396       .  A
C819        H828   1.084       .  S
C819        C820   1.402       .  A
C820        C823   1.433       .  S
C820        C821   1.399       .  A
C821        H829   1.083       .  S
C821        C822   1.397       .  A
C822        H830   1.084       .  S
C823        C824   1.201       .  T
C825        C826   1.202       .  T
C831        C839   1.436       .  S
C831        C832   1.398       .  A
C831        C836   1.403       .  A
C832        H841   1.084       .  S
C832        C833   1.395       .  A
C833        H842   1.084       .  S
C833        C834   1.401       .  A
C834        C837   1.437   1_565  S
C834        C835   1.401       .  A
C835        H843   1.083       .  S
C835        C836   1.400       .  A
C836        H844   1.083       .  S
C837        C838   1.204       .  T
C839        C840   1.204       .  T
C845        C853   1.441       .  S
C845        C846   1.401       .  A
C845        C850   1.402       .  A
C846        H855   1.084       .  S
C846        C847   1.398       .  A
C847        H856   1.084       .  S
C847        C848   1.401       .  A
C848        C851   1.441   1_565  S
C848        C849   1.402       .  A
C849        H857   1.083       .  S
C849        C850   1.401       .  A
C850        H858   1.083       .  S
C851        C852   1.207       .  T
C853        C854   1.207       .  T
C859        C867   1.444       .  S
C859        C860   1.401       .  A
C859        C864   1.403       .  A
C860        H869   1.083       .  S
C860        C861   1.400       .  A
C861        H870   1.083       .  S
C861        C862   1.402       .  A
C862        C865   1.443       .  S
C862        C863   1.401       .  A
C863        H871   1.084       .  S
C863        C864   1.401       .  A
C864        H872   1.083       .  S
C865        C866   1.208       .  T
C867        C868   1.208       .  T
C873        C881   1.440       .  S
C873        C874   1.402       .  A
C873        C878   1.401       .  A
C874        H883   1.084       .  S
C874        C875   1.398       .  A
C875        H884   1.083       .  S
C875        C876   1.400       .  A
C876        C879   1.439       .  S
C876        C877   1.402       .  A
C877        H885   1.083       .  S
C877        C878   1.400       .  A
C878        H886   1.083       .  S
C879        C880   1.206       .  T
C881        C882   1.206       .  T
C887        C895   1.446       .  S
C887        C888   1.402       .  A
C887        C892   1.403       .  A
C888        H897   1.083       .  S
C888        C889   1.401       .  A
C889        H898   1.083       .  S
C889        C890   1.402       .  A
C890        C893   1.445       .  S
C890        C891   1.403       .  A
C891        H899   1.083       .  S
C891        C892   1.402       .  A
C892        H900   1.083       .  S
C893        C894   1.209       .  T
C895        C896   1.210       .  T
C901        C909   1.440       .  S
C901        C902   1.400       .  A
C901        C906   1.403   1_554  A
C902        H911   1.083       .  S
C902        C903   1.399       .  A
C903        H912   1.084       .  S
C903        C904   1.403   1_554  A
C904        C907   1.439       .  S
C904        C905   1.400       .  A
C905        H913   1.083       .  S
C905        C906   1.399       .  A
C906        H914   1.084       .  S
C907        C908   1.205       .  T
C909        C910   1.206       .  T
C915        C923   1.439       .  S
C915        C916   1.403   1_556  A
C915        C920   1.400       .  A
C916        H925   1.084       .  S
C916        C917   1.398       .  A
C917        H926   1.083       .  S
C917        C918   1.400       .  A
C918        C921   1.438       .  S
C918        C919   1.403   1_554  A
C919        H927   1.084       .  S
C919        C920   1.399       .  A
C920        H928   1.083       .  S
C921        C922   1.205       .  T
C923        C924   1.205       .  T
C929        C937   1.444       .  S
C929        C930   1.402       .  A
C929        C934   1.402       .  A
C930        H939   1.083       .  S
C930        C931   1.400       .  A
C931        H940   1.083       .  S
C931        C932   1.402       .  A
C932        C935   1.445       .  S
C932        C933   1.403       .  A
C933        H941   1.083       .  S
C933        C934   1.402       .  A
C934        H942   1.083       .  S
C935        C936   1.209       .  T
C937        C938   1.209       .  T
C943        C951   1.446       .  S
C943        C944   1.402       .  A
C943        C948   1.402       .  A
C944        H953   1.083       .  S
C944        C945   1.401       .  A
C945        H954   1.083       .  S
C945        C946   1.403       .  A
C946        C949   1.446       .  S
C946        C947   1.402       .  A
C947        H955   1.083       .  S
C947        C948   1.401       .  A
C948        H956   1.083       .  S
C949        C950   1.209       .  T
C951        C952   1.210       .  T
C957        C965   1.438       .  S
C957        C958   1.401       .  A
C957        C962   1.401   1_554  A
C958        H967   1.084       .  S
C958        C959   1.397       .  A
C959        H968   1.083       .  S
C959        C960   1.400       .  A
C960        C963   1.438       .  S
C960        C961   1.402   1_554  A
C961        H969   1.084       .  S
C961        C962   1.399       .  A
C962        H970   1.083       .  S
C963        C964   1.205       .  T
C965        C966   1.205       .  T
C971        C979   1.438       .  S
C971        C972   1.401       .  A
C971        C976   1.401   1_556  A
C972        H981   1.084       .  S
C972        C973   1.397       .  A
C973        H982   1.084       .  S
C973        C974   1.400       .  A
C974        C977   1.438       .  S
C974        C975   1.402   1_556  A
C975        H983   1.083       .  S
C975        C976   1.400       .  A
C976        H984   1.083       .  S
C977        C978   1.205       .  T
C979        C980   1.204       .  T
C985        C993   1.442       .  S
C985        C986   1.401       .  A
C985        C990   1.402       .  A
C986        H995   1.083       .  S
C986        C987   1.399       .  A
C987        H996   1.084       .  S
C987        C988   1.402       .  A
C988        C991   1.443       .  S
C988        C989   1.402       .  A
C989        H997   1.083       .  S
C989        C990   1.401       .  A
C990        H998   1.083       .  S
C991        C992   1.208       .  T
C993        C994   1.208       .  T
C999       C1007   1.439       .  S
C999       C1000   1.401       .  A
C999       C1004   1.402       .  A
C1000      H1009   1.083       .  S
C1000      C1001   1.399       .  A
C1001      H1010   1.084       .  S
C1001      C1002   1.402       .  A
C1002      C1005   1.439       .  S
C1002      C1003   1.400       .  A
C1003      H1011   1.083       .  S
C1003      C1004   1.399       .  A
C1004      H1012   1.083       .  S
C1005      C1006   1.205       .  T
C1007      C1008   1.205       .  T
C1013      C1021   1.448       .  S
C1013      C1014   1.402   1_545  A
C1013      C1018   1.404       .  A
C1014      H1023   1.083       .  S
C1014      C1015   1.402       .  A
C1015      H1024   1.083       .  S
C1015      C1016   1.404   1_565  A
C1016      C1019   1.449       .  S
C1016      C1017   1.402       .  A
C1017      H1025   1.083       .  S
C1017      C1018   1.402       .  A
C1018      H1026   1.083       .  S
C1019      C1020   1.211       .  T
C1021      C1022   1.211       .  T
C1027      C1035   1.447       .  S
C1027      C1028   1.402   1_565  A
C1027      C1032   1.403       .  A
C1028      H1037   1.083       .  S
C1028      C1029   1.402       .  A
C1029      H1038   1.083       .  S
C1029      C1030   1.404   1_545  A
C1030      C1033   1.447       .  S
C1030      C1031   1.402       .  A
C1031      H1039   1.083       .  S
C1031      C1032   1.402       .  A
C1032      H1040   1.083       .  S
C1033      C1034   1.210       .  T
C1035      C1036   1.210       .  T
C1041      C1049   1.448       .  S
C1041      C1042   1.404       .  A
C1041      C1046   1.402       .  A
C1042      H1051   1.083       .  S
C1042      C1043   1.403       .  A
C1043      H1052   1.083       .  S
C1043      C1044   1.402       .  A
C1044      C1047   1.448       .  S
C1044      C1045   1.403       .  A
C1045      H1053   1.083       .  S
C1045      C1046   1.402       .  A
C1046      H1054   1.083       .  S
C1047      C1048   1.211       .  T
C1049      C1050   1.211       .  T
C1055      C1063   1.444       .  S
C1055      C1056   1.401       .  A
C1055      C1060   1.403       .  A
C1056      H1065   1.083       .  S
C1056      C1057   1.400       .  A
C1057      H1066   1.083       .  S
C1057      C1058   1.402       .  A
C1058      C1061   1.444       .  S
C1058      C1059   1.403       .  A
C1059      H1067   1.083       .  S
C1059      C1060   1.402       .  A
C1060      H1068   1.083       .  S
C1061      C1062   1.209       .  T
C1063      C1064   1.209       .  T
C1069      C1077   1.442       .  S
C1069      C1070   1.401       .  A
C1069      C1074   1.402       .  A
C1070      H1079   1.084       .  S
C1070      C1071   1.397       .  A
C1071      H1080   1.084       .  S
C1071      C1072   1.400       .  A
C1072      C1075   1.441       .  S
C1072      C1073   1.403       .  A
C1073      H1081   1.084       .  S
C1073      C1074   1.402       .  A
C1074      H1082   1.083       .  S
C1075      C1076   1.207       .  T
C1077      C1078   1.207       .  T
C1083      C1091   1.440       .  S
C1083      C1084   1.401       .  A
C1083      C1088   1.402       .  A
C1084      H1093   1.084       .  S
C1084      C1085   1.400       .  A
C1085      H1094   1.083       .  S
C1085      C1086   1.403       .  A
C1086      C1089   1.441       .  S
C1086      C1087   1.400       .  A
C1087      H1095   1.083       .  S
C1087      C1088   1.399       .  A
C1088      H1096   1.083       .  S
C1089      C1090   1.207       .  T
C1091      C1092   1.206       .  T
C1097      C1105   1.435   1_545  S
C1097      C1098   1.402       .  A
C1097      C1102   1.399       .  A
C1098      H1107   1.084       .  S
C1098      C1099   1.397       .  A
C1099      H1108   1.083       .  S
C1099      C1100   1.399       .  A
C1100      C1103   1.435       .  S
C1100      C1101   1.402       .  A
C1101      H1109   1.084       .  S
C1101      C1102   1.397       .  A
C1102      H1110   1.083       .  S
C1103      C1104   1.203       .  T
C1105      C1106   1.203       .  T
C1111      C1119   1.438       .  S
C1111      C1112   1.400       .  A
C1111      C1116   1.402       .  A
C1112      H1121   1.083       .  S
C1112      C1113   1.399       .  A
C1113      H1122   1.083       .  S
C1113      C1114   1.403       .  A
C1114      C1117   1.438       .  S
C1114      C1115   1.399       .  A
C1115      H1123   1.083       .  S
C1115      C1116   1.398       .  A
C1116      H1124   1.084       .  S
C1117      C1118   1.205       .  T
C1119      C1120   1.205       .  T
C1125      C1133   1.440       .  S
C1125      C1126   1.401       .  A
C1125      C1130   1.402       .  A
C1126      H1135   1.083       .  S
C1126      C1127   1.399       .  A
C1127      H1136   1.083       .  S
C1127      C1128   1.402       .  A
C1128      C1131   1.439       .  S
C1128      C1129   1.401       .  A
C1129      H1137   1.084       .  S
C1129      C1130   1.399       .  A
C1130      H1138   1.083       .  S
C1131      C1132   1.206       .  T
C1133      C1134   1.206       .  T
C1139      C1147   1.447       .  S
C1139      C1140   1.403       .  A
C1139      C1144   1.402       .  A
C1140      H1149   1.084       .  S
C1140      C1141   1.403       .  A
C1141      H1150   1.083       .  S
C1141      C1142   1.403       .  A
C1142      C1145   1.447       .  S
C1142      C1143   1.403       .  A
C1143      H1151   1.084       .  S
C1143      C1144   1.401       .  A
C1144      H1152   1.083       .  S
C1145      C1146   1.210       .  T
C1147      C1148   1.210       .  T
C1153      C1161   1.440       .  S
C1153      C1154   1.401       .  A
C1153      C1158   1.401       .  A
C1154      H1163   1.083       .  S
C1154      C1155   1.398       .  A
C1155      H1164   1.083       .  S
C1155      C1156   1.400       .  A
C1156      C1159   1.441       .  S
C1156      C1157   1.403       .  A
C1157      H1165   1.083       .  S
C1157      C1158   1.400       .  A
C1158      H1166   1.083       .  S
C1159      C1160   1.206       .  T
C1161      C1162   1.206       .  T
C1167      C1175   1.438       .  S
C1167      C1168   1.402       .  A
C1167      C1172   1.400       .  A
C1168      H1177   1.084       .  S
C1168      C1169   1.398       .  A
C1169      H1178   1.083       .  S
C1169      C1170   1.400       .  A
C1170      C1173   1.438       .  S
C1170      C1171   1.402       .  A
C1171      H1179   1.083       .  S
C1171      C1172   1.398       .  A
C1172      H1180   1.083       .  S
C1173      C1174   1.205       .  T
C1175      C1176   1.204       .  T
C1181      C1189   1.436   1_655  S
C1181      C1182   1.401       .  A
C1181      C1186   1.401       .  A
C1182      H1191   1.084       .  S
C1182      C1183   1.396       .  A
C1183      H1192   1.084       .  S
C1183      C1184   1.400       .  A
C1184      C1187   1.437       .  S
C1184      C1185   1.402       .  A
C1185      H1193   1.083       .  S
C1185      C1186   1.400       .  A
C1186      H1194   1.083       .  S
C1187      C1188   1.204       .  T
C1189      C1190   1.204       .  T
C1195      C1203   1.445       .  S
C1195      C1196   1.403       .  A
C1195      C1200   1.402       .  A
C1196      H1205   1.083       .  S
C1196      C1197   1.402       .  A
C1197      H1206   1.083       .  S
C1197      C1198   1.403       .  A
C1198      C1201   1.445       .  S
C1198      C1199   1.402       .  A
C1199      H1207   1.083       .  S
C1199      C1200   1.400       .  A
C1200      H1208   1.083       .  S
C1201      C1202   1.209       .  T
C1203      C1204   1.209       .  T
C1209      C1217   1.442       .  S
C1209      C1210   1.402       .  A
C1209      C1214   1.402       .  A
C1210      H1219   1.084       .  S
C1210      C1211   1.401       .  A
C1211      H1220   1.083       .  S
C1211      C1212   1.402       .  A
C1212      C1215   1.444       .  S
C1212      C1213   1.402       .  A
C1213      H1221   1.084       .  S
C1213      C1214   1.400       .  A
C1214      H1222   1.084       .  S
C1215      C1216   1.208       .  T
C1217      C1218   1.208       .  T
C1223      C1231   1.444       .  S
C1223      C1224   1.401       .  A
C1223      C1228   1.403       .  A
C1224      H1233   1.083       .  S
C1224      C1225   1.400       .  A
C1225      H1234   1.083       .  S
C1225      C1226   1.402       .  A
C1226      C1229   1.445   1_655  S
C1226      C1227   1.402       .  A
C1227      H1235   1.083   1_655  S
C1227      C1228   1.402       .  A
C1228      H1236   1.083       .  S
C1229      C1230   1.209       .  T
C1231      C1232   1.209       .  T
C1237      C1245   1.444       .  S
C1237      C1238   1.401       .  A
C1237      C1242   1.403       .  A
C1238      H1247   1.083       .  S
C1238      C1239   1.401       .  A
C1239      H1248   1.083       .  S
C1239      C1240   1.403       .  A
C1240      C1243   1.444       .  S
C1240      C1241   1.401       .  A
C1241      H1249   1.083       .  S
C1241      C1242   1.400       .  A
C1242      H1250   1.084       .  S
C1243      C1244   1.209       .  T
C1245      C1246   1.208       .  T
C1251      C1259   1.452       .  S
C1251      C1252   1.403       .  A
C1251      C1256   1.404       .  A
C1252      H1261   1.083       .  S
C1252      C1253   1.404       .  A
C1253      H1262   1.083       .  S
C1253      C1254   1.404       .  A
C1254      C1257   1.452       .  S
C1254      C1255   1.403       .  A
C1255      H1263   1.083       .  S
C1255      C1256   1.404       .  A
C1256      H1264   1.083       .  S
C1257      C1258   1.213       .  T
C1259      C1260   1.213       .  T
C1265      C1273   1.443   1_545  S
C1265      C1266   1.402       .  A
C1265      C1270   1.402       .  A
C1266      H1275   1.083       .  S
C1266      C1267   1.402       .  A
C1267      H1276   1.083       .  S
C1267      C1268   1.402       .  A
C1268      C1271   1.442       .  S
C1268      C1269   1.401       .  A
C1269      H1277   1.084       .  S
C1269      C1270   1.399       .  A
C1270      H1278   1.084   1_545  S
C1271      C1272   1.207       .  T
C1273      C1274   1.208       .  T
C1279      C1287   1.440       .  S
C1279      C1280   1.401       .  A
C1279      C1284   1.402       .  A
C1280      H1289   1.083       .  S
C1280      C1281   1.399       .  A
C1281      H1290   1.084       .  S
C1281      C1282   1.401       .  A
C1282      C1285   1.440       .  S
C1282      C1283   1.401       .  A
C1283      H1291   1.083       .  S
C1283      C1284   1.399       .  A
C1284      H1292   1.083       .  S
C1285      C1286   1.206       .  T
C1287      C1288   1.206       .  T
C1293      C1301   1.444       .  S
C1293      C1294   1.402       .  A
C1293      C1298   1.402       .  A
C1294      H1303   1.083       .  S
C1294      C1295   1.400       .  A
C1295      H1304   1.084       .  S
C1295      C1296   1.401       .  A
C1296      C1299   1.443       .  S
C1296      C1297   1.402       .  A
C1297      H1305   1.083       .  S
C1297      C1298   1.401       .  A
C1298      H1306   1.083       .  S
C1299      C1300   1.208       .  T
C1301      C1302   1.208       .  T
C1307      C1315   1.443       .  S
C1307      C1308   1.401   1_565  A
C1307      C1312   1.403   1_565  A
C1308      H1317   1.083   1_545  S
C1308      C1309   1.400       .  A
C1309      H1318   1.083       .  S
C1309      C1310   1.402       .  A
C1310      C1313   1.443       .  S
C1310      C1311   1.401       .  A
C1311      H1319   1.083       .  S
C1311      C1312   1.401       .  A
C1312      H1320   1.083       .  S
C1313      C1314   1.208       .  T
C1315      C1316   1.208       .  T
C1321      C1329   1.449       .  S
C1321      C1322   1.402       .  A
C1321      C1326   1.403       .  A
C1322      H1331   1.083       .  S
C1322      C1323   1.403       .  A
C1323      H1332   1.083       .  S
C1323      C1324   1.404       .  A
C1324      C1327   1.448       .  S
C1324      C1325   1.402       .  A
C1325      H1333   1.083       .  S
C1325      C1326   1.401       .  A
C1326      H1334   1.083       .  S
C1327      C1328   1.211       .  T
C1329      C1330   1.211       .  T
C1335      C1343   1.448       .  S
C1335      C1336   1.402       .  A
C1335      C1340   1.403       .  A
C1336      H1345   1.083       .  S
C1336      C1337   1.402       .  A
C1337      H1346   1.083       .  S
C1337      C1338   1.404       .  A
C1338      C1341   1.448       .  S
C1338      C1339   1.402       .  A
C1339      H1347   1.083       .  S
C1339      C1340   1.402       .  A
C1340      H1348   1.083       .  S
C1341      C1342   1.211   1_655  T
C1343      C1344   1.210       .  T
C1349      C1357   1.446       .  S
C1349      C1350   1.403       .  A
C1349      C1354   1.402       .  A
C1350      H1359   1.083       .  S
C1350      C1351   1.402       .  A
C1351      H1360   1.083       .  S
C1351      C1352   1.402       .  A
C1352      C1355   1.446       .  S
C1352      C1353   1.403       .  A
C1353      H1361   1.083       .  S
C1353      C1354   1.401       .  A
C1354      H1362   1.083       .  S
C1355      C1356   1.210       .  T
C1357      C1358   1.209       .  T
C1363      C1371   1.451       .  S
C1363      C1364   1.403       .  A
C1363      C1368   1.403       .  A
C1364      H1373   1.083       .  S
C1364      C1365   1.404       .  A
C1365      H1374   1.083       .  S
C1365      C1366   1.404       .  A
C1366      C1369   1.452       .  S
C1366      C1367   1.404       .  A
C1367      H1375   1.083       .  S
C1367      C1368   1.403       .  A
C1368      H1376   1.083       .  S
C1369      C1370   1.213       .  T
C1371      C1372   1.213       .  T
C1377      C1385   1.453   1_655  S
C1377      C1378   1.403   1_655  A
C1377      C1382   1.404       .  A
C1378      H1387   1.083       .  S
C1378      C1379   1.402   1_455  A
C1379      H1388   1.083       .  S
C1379      C1380   1.402       .  A
C1380      C1383   1.451       .  S
C1380      C1381   1.404       .  A
C1381      H1389   1.084       .  S
C1381      C1382   1.405       .  A
C1382      H1390   1.083       .  S
C1383      C1384   1.213       .  T
C1385      C1386   1.214       .  T
C1391      C1399   1.444       .  S
C1391      C1392   1.401       .  A
C1391      C1396   1.403       .  A
C1392      H1401   1.083       .  S
C1392      C1393   1.400       .  A
C1393      H1402   1.083       .  S
C1393      C1394   1.402       .  A
C1394      C1397   1.444       .  S
C1394      C1395   1.402       .  A
C1395      H1403   1.083       .  S
C1395      C1396   1.402       .  A
C1396      H1404   1.083       .  S
C1397      C1398   1.209       .  T
C1399      C1400   1.209       .  T
