geometry optimzed in LAMMPS
_audit_creation_date              2020-11-30 
_audit_creation_method            'lammps2cif' 
_symmetry_space_group_name_H-M    'P1' 
_symmetry_Int_Tables_number       1 
_symmetry_cell_setting            triclinic 
loop_ 
_symmetry_equiv_pos_as_xyz 
  x,y,z 
_cell_length_a                    63.10005575 
_cell_length_b                    63.35993016302357 
_cell_length_c                    63.03370256794611 
_cell_angle_alpha                 89.96265148425864 
_cell_angle_beta                  90.00426396269106 
_cell_angle_gamma                 89.97323518116148 
loop_ 
_atom_site_label 
_atom_site_type_symbol 
_atom_site_fract_x 
_atom_site_fract_y 
_atom_site_fract_z 
_atom_site_charge 
N1          N  0.75321284  0.88466371  0.39250966    -0.02700
C2          C  0.76400237  0.86603810  0.39447268    -0.00100
C3          C  0.76281416  0.85452094  0.37592334    -0.23000
C4          C  0.75120931  0.86629574  0.36185543    -0.23200
C5          C  0.74536949  0.88457828  0.37227182    -0.00200
H6          H  0.76991963  0.83927139  0.37287242     0.13600
H7          H  0.74749216  0.86204176  0.34564996     0.13600
N8          N  0.74156301  0.89503899  0.59323228    -0.02700
C9          C  0.75082458  0.87576992  0.59280076    -0.00100
C10         C  0.74743429  0.86540143  0.61177359    -0.23000
C11         C  0.73575787  0.87893525  0.62435309    -0.23200
C12         C  0.73253916  0.89710869  0.61259516    -0.00200
H13         H  0.75331728  0.84997225  0.61619979     0.13600
H14         H  0.73104977  0.87619925  0.64062691     0.13600
N15         N  0.75402545  0.08423175  0.38114385    -0.02700
C16         C  0.76047053  0.10457457  0.38208857    -0.00100
C17         C  0.75370159  0.11546948  0.36435062    -0.23000
C18         C  0.74253751  0.10123366  0.35211191    -0.23200
C19         C  0.74301049  0.08216742  0.36280671    -0.00200
H20         H  0.75607353  0.13205101  0.36099380     0.13600
H21         H  0.73474417  0.10447771  0.33716825     0.13600
N22         N  0.75181492  0.09881105  0.58856367    -0.02700
C23         C  0.75927973  0.11855757  0.58528444    -0.00100
C24         C  0.75348499  0.13157101  0.60187216    -0.23000
C25         C  0.74208102  0.11923206  0.61589049    -0.23200
C26         C  0.74123703  0.09915900  0.60726482    -0.00200
H27         H  0.75678719  0.14825870  0.60338948     0.13600
H28         H  0.73512140  0.12436022  0.63070577     0.13600
N29         N  0.75100360  0.96181309  0.49155892    -0.35800
N30         N  0.76081076  0.99042873  0.45839617    -0.56400
N31         N  0.76388082  0.02507933  0.48873970    -0.35800
N32         N  0.75300536  0.99599219  0.52202261    -0.56400
C33         C  0.74448854  0.95110320  0.47417891     0.27800
C34         C  0.74046380  0.95389953  0.50837962     0.27800
C35         C  0.76183902  0.03550912  0.47016355     0.27800
C36         C  0.75817272  0.03852847  0.50436141     0.27800
C37         C  0.76501503  0.97185430  0.44882722     0.36400
C38         C  0.77065591  0.00547718  0.44699455     0.36400
C39         C  0.75238507  0.97937646  0.53536774     0.36400
C40         C  0.75863654  0.01282604  0.53381078     0.36400
C41         C  0.72895616  0.93672399  0.48000678    -0.21100
C42         C  0.72685648  0.93807944  0.50171608    -0.21100
C43         C  0.75522062  0.05604759  0.47402902    -0.21100
C44         C  0.75302251  0.05798586  0.49570370    -0.21100
C45         C  0.77864975  0.97505775  0.43185588    -0.22200
C46         C  0.78149094  0.99653694  0.43016590    -0.22200
C47         C  0.75762030  0.98564919  0.55578202    -0.22200
C48         C  0.76150075  0.00694405  0.55480354    -0.22200
C49         C  0.75398232  0.95305165  0.45386815    -0.17500
C50         C  0.74489916  0.95925821  0.52958650    -0.17500
C51         C  0.75848504  0.03369314  0.52620637    -0.17500
C52         C  0.76701966  0.02710417  0.45007717    -0.17500
H53         H  0.72036140  0.92597565  0.46983096     0.15400
H54         H  0.71652160  0.92843588  0.51136006     0.15400
H55         H  0.75255742  0.06843804  0.46250002     0.15400
H56         H  0.74817772  0.07208094  0.50409676     0.15400
H57         H  0.78502570  0.96331733  0.42115827     0.13700
H58         H  0.79026810  0.00461490  0.41786835     0.13700
H59         H  0.75776815  0.97611437  0.57003269     0.13700
H60         H  0.76532545  0.01702152  0.56811952     0.13700
H61         H  0.76407595  0.97184160  0.49244548     0.26900
H62         H  0.77059934  0.01019481  0.49075190     0.26900
N63         N  0.90650161  0.74008090  0.40672045    -0.02700
C64         C  0.90947757  0.73348811  0.38652231    -0.00100
C65         C  0.89394516  0.74181198  0.37348498    -0.23000
C66         C  0.88124039  0.75428719  0.38615233    -0.23200
C67         C  0.88937135  0.75292820  0.40646739    -0.00200
H68         H  0.89256845  0.73980944  0.35649408     0.13600
H69         H  0.86773786  0.76352846  0.38106546     0.13600
N70         N  0.90139479  0.75582670  0.61045309    -0.02700
C71         C  0.90323338  0.74880683  0.63083287    -0.00100
C72         C  0.88604954  0.75535527  0.64274019    -0.23000
C73         C  0.87297981  0.76645576  0.62928751    -0.23200
C74         C  0.88275233  0.76665471  0.60967396    -0.00200
H75         H  0.88309640  0.75198711  0.65931219     0.13600
H76         H  0.85790840  0.77354880  0.63333364     0.13600
N77         N  0.11248600  0.73197133  0.41680323    -0.02700
C78         C  0.11163495  0.72389884  0.39691973    -0.00100
C79         C  0.12925037  0.73012813  0.38548365    -0.23000
C80         C  0.14103281  0.74291448  0.39870279    -0.23200
C81         C  0.13030606  0.74386689  0.41780740    -0.00200
H82         H  0.13237078  0.72705886  0.36888886     0.13600
H83         H  0.15539248  0.75128519  0.39455580     0.13600
N84         N  0.09952624  0.75985306  0.61486038    -0.02700
C85         C  0.09752860  0.75060533  0.63436325    -0.00100
C86         C  0.11558945  0.75392792  0.64629691    -0.23000
C87         C  0.12932261  0.76527972  0.63388611    -0.23200
C88         C  0.11923056  0.76880790  0.61476428    -0.00200
H89         H  0.11879736  0.74794922  0.66205960     0.13600
H90         H  0.14526046  0.76996998  0.63812356     0.13600
N91         N  0.97167830  0.73598872  0.50769607    -0.35800
N92         N  0.00522117  0.72394134  0.47843309    -0.56400
N93         N  0.03524682  0.73787462  0.51014693    -0.35800
N94         N  0.00202108  0.74763417  0.53921708    -0.56400
C95         C  0.96194529  0.72399672  0.49303696     0.27800
C96         C  0.96035124  0.73455913  0.52584874     0.27800
C97         C  0.04679514  0.72574693  0.49695170     0.27800
C98         C  0.04487944  0.73749264  0.52927737     0.27800
C99         C  0.98870250  0.72555029  0.46499540     0.36400
C100        C  0.02285493  0.72592163  0.46652954     0.36400
C101        C  0.98417100  0.75722994  0.54573103     0.36400
C102        C  0.01835691  0.75880793  0.54706598     0.36400
C103        C  0.94425336  0.71450171  0.50173672    -0.21100
C104        C  0.94366170  0.72053862  0.52278148    -0.21100
C105        C  0.06377433  0.71705831  0.50772001    -0.21100
C106        C  0.06209213  0.72382893  0.52845891    -0.21100
C107        C  0.99580292  0.72799482  0.44431771    -0.22200
C108        C  0.01762528  0.72816546  0.44529351    -0.22200
C109        C  0.98907319  0.77533714  0.55704987    -0.22200
C110        C  0.01091744  0.77628006  0.55801125    -0.22200
C111        C  0.96744099  0.72411337  0.47151250    -0.17500
C112        C  0.96420838  0.74745596  0.54387900    -0.17500
C113        C  0.03934248  0.75122426  0.54614939    -0.17500
C114        C  0.04342422  0.72487564  0.47500174    -0.17500
H115        H  0.93304366  0.70431284  0.49374702     0.15400
H116        H  0.93195414  0.71544330  0.53420955     0.15400
H117        H  0.07605384  0.70700544  0.50127453     0.15400
H118        H  0.07282812  0.71976887  0.54120181     0.15400
H119        H  0.98627710  0.72942083  0.43010697     0.13700
H120        H  0.02836649  0.72977493  0.43200451     0.13700
H121        H  0.97808818  0.78609729  0.56459615     0.13700
H122        H  0.02018998  0.78803837  0.56629397     0.13700
H123        H  0.98374469  0.74678156  0.50446167     0.26900
H124        H  0.02323686  0.74821687  0.50546127     0.26900
N125        N  0.24773085  0.89418877  0.40194011    -0.02700
C126        C  0.24212170  0.87381174  0.40518252    -0.00100
C127        C  0.24513291  0.86222294  0.38686577    -0.23000
C128        C  0.25269155  0.87607831  0.37179403    -0.23200
C129        C  0.25417805  0.89562206  0.38148942    -0.00200
H130        H  0.24186927  0.84561066  0.38460797     0.13600
H131        H  0.25698444  0.87221235  0.35563662     0.13600
N132        N  0.24877810  0.90630352  0.60990885    -0.02700
C133        C  0.24205036  0.88605886  0.60881978    -0.00100
C134        C  0.24423168  0.87643813  0.62841158    -0.23000
C135        C  0.25251591  0.89143280  0.64195899    -0.23200
C136        C  0.25531643  0.90959748  0.63010588    -0.00200
H137        H  0.24002633  0.86038546  0.63248784     0.13600
H138        H  0.25642112  0.88921082  0.65852790     0.13600
N139        N  0.24797258  0.09851592  0.39322890    -0.02700
C140        C  0.24223444  0.11906566  0.39458656    -0.00100
C141        C  0.24575792  0.12913476  0.37546822    -0.23000
C142        C  0.25376191  0.11410658  0.36182249    -0.23200
C143        C  0.25509470  0.09545914  0.37319070    -0.00200
H144        H  0.24242394  0.14547071  0.37171915     0.13600
H145        H  0.25833890  0.11656893  0.34546296     0.13600
N146        N  0.24600652  0.10763461  0.59745822    -0.02700
C147        C  0.23711772  0.12683443  0.59442373    -0.00100
C148        C  0.23748647  0.13826988  0.61310015    -0.23000
C149        C  0.24672516  0.12547310  0.62818461    -0.23200
C150        C  0.25196235  0.10684066  0.61806313    -0.00200
H151        H  0.23144023  0.15406864  0.61554273     0.13600
H152        H  0.24950965  0.12939715  0.64465492     0.13600
N153        N  0.24530778  0.99894298  0.46775033    -0.35800
N154        N  0.24716440  0.03303383  0.49827438    -0.56400
N155        N  0.24804715  0.00249277  0.53227036    -0.35800
N156        N  0.24808992  0.96834937  0.50185814    -0.56400
C157        C  0.25023000  0.01559587  0.45527642     0.27800
C158        C  0.25109276  0.98128479  0.45719861     0.27800
C159        C  0.25378693  0.02026058  0.54263334     0.27800
C160        C  0.25371155  0.98596434  0.54457632     0.27800
C161        C  0.24113311  0.04373803  0.48077212     0.36400
C162        C  0.24297294  0.04570462  0.51496133     0.36400
C163        C  0.24257045  0.95574968  0.48550833     0.36400
C164        C  0.24334003  0.95764007  0.51975770     0.36400
C165        C  0.25944722  0.00847326  0.43662888    -0.21100
C166        C  0.25994288  0.98676669  0.43781915    -0.21100
C167        C  0.26338289  0.01497959  0.56171299    -0.21100
C168        C  0.26334914  0.99328277  0.56293834    -0.21100
C169        C  0.23290184  0.06325594  0.48634954    -0.22200
C170        C  0.23403180  0.06448717  0.50808043    -0.22200
C171        C  0.23409324  0.93700215  0.49300769    -0.22200
C172        C  0.23456642  0.93820466  0.51478188    -0.22200
C173        C  0.24513736  0.03683756  0.45987214    -0.17500
C174        C  0.24690089  0.96045113  0.46406443    -0.17500
C175        C  0.24856188  0.96467487  0.54035000    -0.17500
C176        C  0.24871626  0.04098255  0.53606533    -0.17500
H177        H  0.26495526  0.01790496  0.42341151     0.15400
H178        H  0.26588547  0.97622810  0.42568730     0.15400
H179        H  0.26938467  0.02564838  0.57369632     0.15400
H180        H  0.26935426  0.98398656  0.57604128     0.15400
H181        H  0.22702748  0.07544957  0.47584749     0.13700
H182        H  0.22913426  0.07778898  0.51767054     0.13700
H183        H  0.22844246  0.92376192  0.48375972     0.13700
H184        H  0.22934354  0.92606635  0.52567999     0.13700
H185        H  0.23617562  0.99948974  0.48150091     0.26900
H186        H  0.23829507  0.00174011  0.51897607     0.26900
N187        N  0.38841129  0.88717068  0.24547706    -0.02700
C188        C  0.38919558  0.86717953  0.23783503    -0.00100
C189        C  0.37007483  0.85710187  0.24130691    -0.23000
C190        C  0.35701278  0.87152801  0.25110375    -0.23200
C191        C  0.36866163  0.88987629  0.25343587    -0.00200
H192        H  0.36595846  0.84111824  0.23689109     0.13600
H193        H  0.34083578  0.86885096  0.25611518     0.13600
N194        N  0.59325674  0.88141179  0.24482021    -0.02700
C195        C  0.58961514  0.86142290  0.23831430    -0.00100
C196        C  0.60772135  0.84936191  0.24064882    -0.23000
C197        C  0.62307009  0.86258184  0.24886058    -0.23200
C198        C  0.61365567  0.88213568  0.25132823    -0.00200
H199        H  0.60967800  0.83292372  0.23643532     0.13600
H200        H  0.63922913  0.85836385  0.25275235     0.13600
N201        N  0.39451191  0.09023115  0.24162188    -0.02700
C202        C  0.39740149  0.11033713  0.23485168    -0.00100
C203        C  0.37849183  0.12132766  0.23622925    -0.23000
C204        C  0.36354094  0.10742711  0.24394490    -0.23200
C205        C  0.37383610  0.08843459  0.24723860    -0.00200
H206        H  0.37588360  0.13773375  0.23222034     0.13600
H207        H  0.34717110  0.11104838  0.24754308     0.13600
N208        N  0.60016650  0.08489239  0.24235749    -0.02700
C209        C  0.59871118  0.10537623  0.23631503    -0.00100
C210        C  0.61838629  0.11489468  0.23750318    -0.23000
C211        C  0.63243650  0.09961852  0.24418020    -0.23200
C212        C  0.62083688  0.08131333  0.24703284    -0.00200
H213        H  0.62216264  0.13111002  0.23365524     0.13600
H214        H  0.64918891  0.10178761  0.24712160     0.13600
N215        N  0.46205395  0.98714360  0.24793022    -0.35800
N216        N  0.49514453  0.01891439  0.24929197    -0.56400
N217        N  0.52630459  0.98575381  0.24695280    -0.35800
N218        N  0.49322347  0.95409445  0.24736317    -0.56400
C219        C  0.45129893  0.00435747  0.25461070     0.27800
C220        C  0.45019857  0.97005361  0.25285770     0.27800
C221        C  0.53825965  0.00261206  0.25233367     0.27800
C222        C  0.53728494  0.96829959  0.25255743     0.27800
C223        C  0.47809857  0.03091932  0.24469366     0.36400
C224        C  0.51228539  0.03012149  0.24320398     0.36400
C225        C  0.47589925  0.94303371  0.24150908     0.36400
C226        C  0.51018416  0.94219781  0.24216371     0.36400
C227        C  0.43251165  0.99818611  0.26416586    -0.21100
C228        C  0.43186253  0.97645183  0.26316475    -0.21100
C229        C  0.55692750  0.99585976  0.26173949    -0.21100
C230        C  0.55631789  0.97411377  0.26187266    -0.21100
C231        C  0.48438648  0.04981801  0.23555701    -0.22200
C232        C  0.50613543  0.04931098  0.23461535    -0.22200
C233        C  0.48189521  0.92408494  0.23227124    -0.22200
C234        C  0.50368200  0.92350713  0.23280465    -0.22200
C235        C  0.45712909  0.02536274  0.24995682    -0.17500
C236        C  0.45493589  0.94918485  0.24644558    -0.17500
C237        C  0.53125089  0.94746934  0.24743940    -0.17500
C238        C  0.53332907  0.02367333  0.24697270    -0.17500
H239        H  0.42033578  0.00831833  0.27070087     0.15400
H240        H  0.41910458  0.96654580  0.26887632     0.15400
H241        H  0.56983538  0.00557841  0.26743086     0.15400
H242        H  0.56868314  0.96376932  0.26768331     0.15400
H243        H  0.47437642  0.06265388  0.23024437     0.13700
H244        H  0.51623978  0.06168360  0.22846856     0.13700
H245        H  0.47167405  0.91180852  0.22614086     0.13700
H246        H  0.51358759  0.91072320  0.22719401     0.13700
H247        H  0.47514961  0.98724913  0.23797452     0.26900
H248        H  0.51289990  0.98612418  0.23742331     0.26900
N249        N  0.39197030  0.74877893  0.88268340    -0.02700
C250        C  0.39462682  0.75625042  0.86268955    -0.00100
C251        C  0.37650409  0.75260263  0.85087703    -0.23000
C252        C  0.36221268  0.74281004  0.86416188    -0.23200
C253        C  0.37219486  0.74049722  0.88354080    -0.00200
H254        H  0.37387708  0.75678398  0.83443904     0.13600
H255        H  0.34639697  0.73763699  0.86004219     0.13600
N256        N  0.59343913  0.74151093  0.88397250    -0.02700
C257        C  0.61320541  0.73347506  0.88585739    -0.00100
C258        C  0.62356655  0.73430026  0.86655811    -0.23000
C259        C  0.60950084  0.74297971  0.85226015    -0.23200
C260        C  0.59112452  0.74733236  0.86341573    -0.00200
H261        H  0.63964856  0.72933815  0.86329202     0.13600
H262        H  0.61268063  0.74654649  0.83577414     0.13600
N263        N  0.38763572  0.74465651  0.08644708    -0.02700
C264        C  0.38968980  0.75146344  0.10666124    -0.00100
C265        C  0.37031630  0.75063638  0.11688183    -0.23000
C266        C  0.35581132  0.74334216  0.10220456    -0.23200
C267        C  0.36694478  0.73981882  0.08366425    -0.00200
H268        H  0.36702527  0.75521074  0.13308611     0.13600
H269        H  0.33910550  0.74056013  0.10487501     0.13600
N270        N  0.59375761  0.74757480  0.09159680    -0.02700
C271        C  0.59175015  0.75374312  0.11209053    -0.00100
C272        C  0.61096927  0.75178847  0.12246672    -0.23000
C273        C  0.62525763  0.74422591  0.10778530    -0.23200
C274        C  0.61424465  0.74166907  0.08900258    -0.00200
H275        H  0.61435811  0.75580388  0.13879910     0.13600
H276        H  0.64180490  0.74069927  0.11058142     0.13600
N277        N  0.52507016  0.75377171  0.98789018    -0.35800
N278        N  0.49207420  0.75007269  0.01958399    -0.56400
N279        N  0.46046696  0.74950638  0.98636565    -0.35800
N280        N  0.49312716  0.75180431  0.95490129    -0.56400
C281        C  0.53614344  0.74796863  0.00531530     0.27800
C282        C  0.53671402  0.74823848  0.97073443     0.27800
C283        C  0.44929705  0.74249202  0.00319540     0.27800
C284        C  0.44992066  0.74346997  0.96873854     0.27800
C285        C  0.50857585  0.75575855  0.03195383     0.36400
C286        C  0.47436450  0.75347692  0.03110559     0.36400
C287        C  0.51024576  0.75783981  0.94367112     0.36400
C288        C  0.47605252  0.75641731  0.94289772     0.36400
C289        C  0.55505786  0.73861928  0.99917406    -0.21100
C290        C  0.55543245  0.73881991  0.97732538    -0.21100
C291        C  0.43151527  0.73164494  0.99625740    -0.21100
C292        C  0.43194404  0.73220117  0.97441599    -0.21100
C293        C  0.50129954  0.76309649  0.05136431    -0.22200
C294        C  0.47955729  0.76157900  0.05084496    -0.22200
C295        C  0.50408689  0.76673306  0.92454691    -0.22200
C296        C  0.48230044  0.76601126  0.92413580    -0.22200
C297        C  0.53000232  0.75216845  0.02650496    -0.17500
C298        C  0.53112887  0.75252045  0.94942017    -0.17500
C299        C  0.45536011  0.74966675  0.94792063    -0.17500
C300        C  0.45386462  0.74756153  0.02447631    -0.17500
H301        H  0.56736156  0.73237288  0.00936524     0.15400
H302        H  0.56808121  0.73276121  0.96746213     0.15400
H303        H  0.41929732  0.72448970  0.00593281     0.15400
H304        H  0.42014652  0.72548078  0.96394571     0.15400
H305        H  0.51066914  0.76857637  0.06464504     0.13700
H306        H  0.46884493  0.76564224  0.06362058     0.13700
H307        H  0.51425973  0.77249307  0.91198707     0.13700
H308        H  0.47228449  0.77122068  0.91121040     0.13700
H309        H  0.51136347  0.76295032  0.98777192     0.26900
H310        H  0.47295147  0.76024381  0.98695739     0.26900
N311        N  0.39506516  0.90911455  0.75167195    -0.02700
C312        C  0.39657944  0.88853283  0.75707613    -0.00100
C313        C  0.37738259  0.87850443  0.75384534    -0.23000
C314        C  0.36362844  0.89358657  0.74616833    -0.23200
C315        C  0.37496414  0.91223274  0.74493147    -0.00200
H316        H  0.37377894  0.86204717  0.75667605     0.13600
H317        H  0.34733830  0.89107689  0.74143578     0.13600
N318        N  0.60415115  0.90109477  0.74774643    -0.02700
C319        C  0.60227543  0.88120902  0.75554258    -0.00100
C320        C  0.62152267  0.87082826  0.75356294    -0.23000
C321        C  0.63548855  0.88482294  0.74425955    -0.23200
C322        C  0.62433925  0.90324917  0.74074848    -0.00200
H323        H  0.62512799  0.85485798  0.75846743     0.13600
H324        H  0.65185723  0.88175957  0.74017193     0.13600
N325        N  0.40631107  0.11071139  0.74812545    -0.02700
C326        C  0.41028990  0.13100764  0.75355651    -0.00100
C327        C  0.39312955  0.14357885  0.74841146    -0.23000
C328        C  0.37801407  0.13039285  0.73975546    -0.23200
C329        C  0.38661805  0.11031655  0.73964844    -0.00200
H330        H  0.39158482  0.16037794  0.75107369     0.13600
H331        H  0.36253770  0.13497714  0.73396528     0.13600
N332        N  0.61083914  0.10253505  0.75327403    -0.02700
C333        C  0.61005639  0.12275716  0.76035115    -0.00100
C334        C  0.62903112  0.13285375  0.75613319    -0.23000
C335        C  0.64181198  0.11838477  0.74604214    -0.23200
C336        C  0.63021423  0.09995393  0.74428288    -0.00200
H337        H  0.63328257  0.14889354  0.76016798     0.13600
H338        H  0.65771479  0.12113962  0.74024027     0.13600
N339        N  0.50229087  0.97263451  0.75041082    -0.35800
N340        N  0.47120036  0.00579866  0.75389915    -0.56400
N341        N  0.50502453  0.03657725  0.75554320    -0.35800
N342        N  0.53618096  0.00364738  0.75378635    -0.56400
C343        C  0.48474045  0.96164136  0.75582960     0.27800
C344        C  0.51922682  0.96047406  0.75513977     0.27800
C345        C  0.48806548  0.04813056  0.76149749     0.27800
C346        C  0.52256559  0.04694927  0.76208084     0.27800
C347        C  0.45879493  0.98954858  0.74787262     0.36400
C348        C  0.46030837  0.02352771  0.74931864     0.36400
C349        C  0.54686380  0.98667246  0.74652781     0.36400
C350        C  0.54847302  0.02063501  0.74972912     0.36400
C351        C  0.49055265  0.94227760  0.76426700    -0.21100
C352        C  0.51239443  0.94154936  0.76387719    -0.21100
C353        C  0.49481397  0.06594787  0.77233588    -0.21100
C354        C  0.51667229  0.06513868  0.77281560    -0.21100
C355        C  0.43994489  0.99690279  0.73936902    -0.22200
C356        C  0.44097057  0.01852993  0.74011954    -0.22200
C357        C  0.56596118  0.99289643  0.73761547    -0.22200
C358        C  0.56699383  0.01446648  0.73966879    -0.22200
C359        C  0.46376087  0.96825011  0.75171475    -0.17500
C360        C  0.54042341  0.96560719  0.75001663    -0.17500
C361        C  0.54348934  0.04136651  0.75628009    -0.17500
C362        C  0.46701867  0.04392998  0.75512686    -0.17500
H363        H  0.48014317  0.92986333  0.76979869     0.15400
H364        H  0.52210428  0.92844627  0.76908490     0.15400
H365        H  0.48503215  0.07850467  0.77864227     0.15400
H366        H  0.52704721  0.07696310  0.77956873     0.15400
H367        H  0.42681892  0.98765446  0.73339421     0.13700
H368        H  0.42873772  0.02928148  0.73480864     0.13700
H369        H  0.57800188  0.98291483  0.73062287     0.13700
H370        H  0.57991993  0.02441289  0.73443998     0.13700
H371        H  0.50266670  0.98654108  0.74159176     0.26900
H372        H  0.50467280  0.02405116  0.74486028     0.26900
N373        N  0.40470331  0.24324057  0.90614566    -0.02700
C374        C  0.38555607  0.25293329  0.90641218    -0.00100
C375        C  0.37591981  0.25122638  0.88678473    -0.23000
C376        C  0.38956778  0.23981324  0.87410077    -0.23200
C377        C  0.40706080  0.23512815  0.88642010    -0.00200
H378        H  0.36062819  0.25750073  0.88222869     0.13600
H379        H  0.38721721  0.23579122  0.85758560     0.13600
N380        N  0.60971661  0.23534559  0.91690671    -0.02700
C381        C  0.62870227  0.24525748  0.91772080    -0.00100
C382        C  0.63958453  0.24223257  0.89893303    -0.23000
C383        C  0.62674956  0.23001820  0.88616476    -0.23200
C384        C  0.60852535  0.22607614  0.89763670    -0.00200
H385        H  0.65485553  0.24876676  0.89472027     0.13600
H386        H  0.62982677  0.22557350  0.86988033     0.13600
N387        N  0.39873767  0.25409240  0.11261243    -0.02700
C388        C  0.37971858  0.26435751  0.11198370    -0.00100
C389        C  0.36904769  0.26172613  0.13095923    -0.23000
C390        C  0.38189662  0.24980244  0.14387315    -0.23200
C391        C  0.39985205  0.24513669  0.13225499    -0.00200
H392        H  0.35349458  0.26775498  0.13492147     0.13600
H393        H  0.37842495  0.24484936  0.15993618     0.13600
N394        N  0.60384549  0.25676093  0.11468491    -0.02700
C395        C  0.62465646  0.26279179  0.11389352    -0.00100
C396        C  0.63512752  0.25628710  0.13201595    -0.23000
C397        C  0.62052804  0.24588731  0.14437967    -0.23200
C398        C  0.60156021  0.24609946  0.13341010    -0.00200
H399        H  0.65170789  0.25861544  0.13572960     0.13600
H400        H  0.62360430  0.23828922  0.15945248     0.13600
N401        N  0.47063847  0.24685439  0.01044721    -0.35800
N402        N  0.50207994  0.25437011  0.04311560    -0.56400
N403        N  0.53450630  0.24646903  0.01262050    -0.35800
N404        N  0.50336191  0.23714476  0.98032143    -0.56400
C405        C  0.45995428  0.24325782  0.02868643     0.27800
C406        C  0.46008472  0.23693148  0.99473258     0.27800
C407        C  0.54434295  0.24449411  0.03156012     0.27800
C408        C  0.54528758  0.23456422  0.99854706     0.27800
C409        C  0.48435646  0.26320488  0.05098367     0.36400
C410        C  0.51865576  0.26472874  0.05168539     0.36400
C411        C  0.48693098  0.23938616  0.96685615     0.36400
C412        C  0.52102761  0.23776997  0.96835109     0.36400
C413        C  0.44305477  0.22976798  0.02446650    -0.21100
C414        C  0.44262515  0.22657558  0.00284199    -0.21100
C415        C  0.56081720  0.23006234  0.02970451    -0.21100
C416        C  0.56190811  0.22442159  0.00860991    -0.21100
C417        C  0.48955266  0.28005354  0.06400579    -0.22200
C418        C  0.51143036  0.28105505  0.06443026    -0.22200
C419        C  0.49409356  0.24105523  0.94614167    -0.22200
C420        C  0.51584876  0.23995618  0.94708676    -0.22200
C421        C  0.46417571  0.25406431  0.04803078    -0.17500
C422        C  0.46565024  0.23808413  0.97320988    -0.17500
C423        C  0.54150635  0.23482018  0.97658848    -0.17500
C424        C  0.53968595  0.25737977  0.04936962    -0.17500
H425        H  0.43182362  0.22318032  0.03560488     0.15400
H426        H  0.43110036  0.21733974  0.99417659     0.15400
H427        H  0.57146709  0.22472191  0.04204278     0.15400
H428        H  0.57359100  0.21410269  0.00153599     0.15400
H429        H  0.47874951  0.29011791  0.07269556     0.13700
H430        H  0.52084945  0.29218377  0.07340033     0.13700
H431        H  0.48464458  0.24239611  0.93187012     0.13700
H432        H  0.52655706  0.24031648  0.93367994     0.13700
H433        H  0.48296104  0.25762349  0.00827782     0.26900
H434        H  0.52291418  0.25761272  0.00882253     0.26900
N435        N  0.25167381  0.38515857  0.89599188    -0.02700
C436        C  0.26151947  0.36603755  0.89746715    -0.00100
C437        C  0.25685080  0.35371103  0.88003277    -0.23000
C438        C  0.24381135  0.36548445  0.86724153    -0.23200
C439        C  0.24055809  0.38454412  0.87740783    -0.00200
H440        H  0.26213304  0.33772173  0.87710871     0.13600
H441        H  0.23717727  0.36058294  0.85219729     0.13600
N442        N  0.25492886  0.58586946  0.88215782    -0.02700
C443        C  0.25960870  0.60674073  0.88266054    -0.00100
C444        C  0.25173001  0.61658369  0.86473958    -0.23000
C445        C  0.24159639  0.60124033  0.85301680    -0.23200
C446        C  0.24365850  0.58256273  0.86416884    -0.00200
H447        H  0.25223534  0.63328835  0.86119256     0.13600
H448        H  0.23266961  0.60366738  0.83856175     0.13600
N449        N  0.24262706  0.39597842  0.09480275    -0.02700
C450        C  0.25103644  0.37631789  0.09435980    -0.00100
C451        C  0.24646720  0.36576139  0.11299924    -0.23000
C452        C  0.23471132  0.37944765  0.12528384    -0.23200
C453        C  0.23271881  0.39789081  0.11373444    -0.00200
H454        H  0.25136254  0.34995404  0.11728337     0.13600
H455        H  0.22896412  0.37655844  0.14119415     0.13600
N456        N  0.24496885  0.60176203  0.08807818    -0.02700
C457        C  0.24932029  0.62219107  0.08376520    -0.00100
C458        C  0.23976515  0.63521837  0.09851297    -0.23000
C459        C  0.22908697  0.62220982  0.11240947    -0.23200
C460        C  0.23243708  0.60176222  0.10547903    -0.00200
H461        H  0.24001536  0.65229327  0.09875678     0.13600
H462        H  0.21970332  0.62715351  0.12588545     0.13600
N463        N  0.25164227  0.46355351  0.99339117    -0.35800
N464        N  0.25412796  0.49722134  0.02418038    -0.56400
N465        N  0.26423325  0.52663729  0.99088839    -0.35800
N466        N  0.26068636  0.49231816  0.96001313    -0.56400
C467        C  0.24125825  0.45535520  0.01015582     0.27800
C468        C  0.24525761  0.45283686  0.97601367     0.27800
C469        C  0.25928282  0.54006250  0.00683264     0.27800
C470        C  0.26239108  0.53747632  0.97249307     0.27800
C471        C  0.25321974  0.48051983  0.03740244     0.36400
C472        C  0.25932162  0.51403784  0.03618594     0.36400
C473        C  0.26509232  0.47381335  0.95031874     0.36400
C474        C  0.26993253  0.50761686  0.94839277     0.36400
C475        C  0.22776425  0.43946358  0.00341283    -0.21100
C476        C  0.22979437  0.43833580  0.98168739    -0.21100
C477        C  0.25504548  0.55989335  0.99852991    -0.21100
C478        C  0.25695615  0.55825766  0.97685653    -0.21100
C479        C  0.25788125  0.48668573  0.05797298    -0.22200
C480        C  0.26157157  0.50804088  0.05722881    -0.22200
C481        C  0.27805876  0.47737987  0.93291340    -0.22200
C482        C  0.28035443  0.49887504  0.93118172    -0.22200
C483        C  0.24579102  0.46046475  0.03137229    -0.17500
C484        C  0.25517576  0.45453132  0.95596557    -0.17500
C485        C  0.26670284  0.52929109  0.95205367    -0.17500
C486        C  0.25919840  0.53496513  0.02868580    -0.17500
H487        H  0.21772758  0.42950926  0.01306363     0.15400
H488        H  0.22155213  0.42740406  0.97140648     0.15400
H489        H  0.25107072  0.57412186  0.00714462     0.15400
H490        H  0.25491234  0.57106430  0.96567789     0.15400
H491        H  0.25764718  0.47704622  0.07215429     0.13700
H492        H  0.26487981  0.51806491  0.07071800     0.13700
H493        H  0.28472658  0.46587040  0.92214921     0.13700
H494        H  0.28879376  0.50695226  0.91867990     0.13700
H495        H  0.26471190  0.47358379  0.99427226     0.26900
H496        H  0.27019906  0.51141372  0.99252316     0.26900
N497        N  0.88741651  0.38687273  0.74388201    -0.02700
C498        C  0.86831158  0.38853113  0.75387264    -0.00100
C499        C  0.85643272  0.37049135  0.75058597    -0.23000
C500        C  0.86851211  0.35718715  0.73838025    -0.23200
C501        C  0.88739542  0.36750436  0.73448488    -0.00200
H502        H  0.84064809  0.36732249  0.75648683     0.13600
H503        H  0.86400576  0.34163185  0.73292873     0.13600
N504        N  0.89266635  0.58677337  0.73142874    -0.02700
C505        C  0.89528281  0.60630493  0.72307108    -0.00100
C506        C  0.87731994  0.61833927  0.72643167    -0.23000
C507        C  0.86328129  0.60579153  0.73751802    -0.23200
C508        C  0.87313381  0.58650892  0.74036308    -0.00200
H509        H  0.87513883  0.63478689  0.72233755     0.13600
H510        H  0.84787317  0.61043508  0.74343726     0.13600
N511        N  0.08913705  0.37997571  0.75446715    -0.02700
C512        C  0.10902848  0.38079316  0.76259305    -0.00100
C513        C  0.12014855  0.36285488  0.75691327    -0.23000
C514        C  0.10666798  0.35080464  0.74457723    -0.23200
C515        C  0.08772712  0.36171454  0.74333389    -0.00200
H516        H  0.13657908  0.35941676  0.76041941     0.13600
H517        H  0.11040903  0.33593691  0.73701079     0.13600
N518        N  0.09906254  0.58467003  0.74416253    -0.02700
C519        C  0.09828068  0.60437615  0.73583991    -0.00100
C520        C  0.11689146  0.61498680  0.74031936    -0.23000
C521        C  0.12932784  0.60134193  0.75209105    -0.23200
C522        C  0.11792794  0.58281912  0.75423505    -0.00200
H523        H  0.12072739  0.63109076  0.73608432     0.13600
H524        H  0.14491287  0.60461528  0.75844255     0.13600
N525        N  0.96238303  0.48601445  0.73916172    -0.35800
N526        N  0.99285577  0.45425406  0.74952842    -0.56400
N527        N  0.02589587  0.48588445  0.74928969    -0.35800
N528        N  0.99521990  0.51763948  0.73726597    -0.56400
C529        C  0.95252208  0.46796952  0.73338820     0.27800
C530        C  0.95300285  0.50198552  0.72857743     0.27800
C531        C  0.03734950  0.46787515  0.74927866     0.27800
C532        C  0.03876936  0.50148662  0.74253035     0.27800
C533        C  0.97458618  0.44466146  0.75490836     0.36400
C534        C  0.00834939  0.44454744  0.76047840     0.36400
C535        C  0.97803157  0.53032648  0.73722897     0.36400
C536        C  0.01205322  0.53014516  0.74119734     0.36400
C537        C  0.93738773  0.47254759  0.71802991    -0.21100
C538        C  0.93720629  0.49417288  0.71555772    -0.21100
C539        C  0.05789514  0.47210020  0.74269367    -0.21100
C540        C  0.05881931  0.49342105  0.73853151    -0.21100
C541        C  0.97839656  0.42936043  0.77020073    -0.22200
C542        C  0.00001318  0.42877819  0.77316487    -0.22200
C543        C  0.98395880  0.55108148  0.74077968    -0.22200
C544        C  0.00562810  0.55098463  0.74317530    -0.22200
C545        C  0.95542932  0.44835279  0.74392082    -0.17500
C546        C  0.95744905  0.52341585  0.73212773    -0.17500
C547        C  0.03320198  0.52300485  0.74171849    -0.17500
C548        C  0.02989591  0.44819558  0.75659302    -0.17500
H549        H  0.92698407  0.46159442  0.70998390     0.15400
H550        H  0.92672124  0.50306814  0.70532889     0.15400
H551        H  0.07098773  0.46111571  0.74153548     0.15400
H552        H  0.07272203  0.50203740  0.73342377     0.15400
H553        H  0.96694675  0.41916360  0.77782372     0.13700
H554        H  0.00858057  0.41800644  0.78336712     0.13700
H555        H  0.97383117  0.56487239  0.74104556     0.13700
H556        H  0.01552568  0.56467314  0.74587041     0.13700
H557        H  0.97278862  0.48783125  0.75188924     0.26900
H558        H  0.01086826  0.48782975  0.75580467     0.26900
N559        N  0.74689282  0.39887552  0.90273684    -0.02700
C560        C  0.75830718  0.39943182  0.88452163    -0.00100
C561        C  0.75944472  0.37955436  0.87563751    -0.23000
C562        C  0.74839164  0.36624929  0.88893266    -0.23200
C563        C  0.74100747  0.37844073  0.90559975    -0.00200
H564        H  0.76766350  0.37517137  0.86122866     0.13600
H565        H  0.74668483  0.34936096  0.88706245     0.13600
N566        N  0.74850339  0.60052172  0.88993788    -0.02700
C567        C  0.74001087  0.62037098  0.89007834    -0.00100
C568        C  0.74462379  0.63080847  0.87141591    -0.23000
C569        C  0.75629263  0.61716429  0.85924529    -0.23200
C570        C  0.75873496  0.59882673  0.87088926    -0.00200
H571        H  0.74000203  0.64670224  0.86713875     0.13600
H572        H  0.76244353  0.62029130  0.84352710     0.13600
N573        N  0.74732705  0.40946192  0.10824088    -0.02700
C574        C  0.75752267  0.41175873  0.12700829    -0.00100
C575        C  0.75536803  0.39353397  0.13892087    -0.23000
C576        C  0.74340620  0.37966034  0.12694702    -0.23200
C577        C  0.73870258  0.38991250  0.10817214    -0.00200
H578        H  0.76198260  0.39055134  0.15447423     0.13600
H579        H  0.73927834  0.36362110  0.13115057     0.13600
N580        N  0.75764188  0.61237331  0.09085872    -0.02700
C581        C  0.74694827  0.63085723  0.08891698    -0.00100
C582        C  0.74813825  0.64207969  0.10769143    -0.23000
C583        C  0.75997298  0.63003609  0.12159478    -0.23200
C584        C  0.76558771  0.61188849  0.11082631    -0.00200
H585        H  0.74080383  0.65715177  0.11105558     0.13600
H586        H  0.76341125  0.63374301  0.13799142     0.13600
N587        N  0.75185661  0.53486143  0.99646818    -0.35800
N588        N  0.74096181  0.50238797  0.96699118    -0.56400
N589        N  0.73898020  0.47200404  0.00139861    -0.35800
N590        N  0.75184020  0.50485287  0.03075880    -0.56400
C591        C  0.75698829  0.54359977  0.97760384     0.27800
C592        C  0.76279763  0.54525092  0.01159922     0.27800
C593        C  0.74008587  0.45909124  0.98437667     0.27800
C594        C  0.74445214  0.46046742  0.01853804     0.27800
C595        C  0.73584003  0.51967198  0.95560923     0.36400
C596        C  0.73120468  0.48594024  0.95764484     0.36400
C597        C  0.75334660  0.52286342  0.04207480     0.36400
C598        C  0.74658753  0.48958210  0.04470223     0.36400
C599        C  0.77225077  0.55907355  0.98074843    -0.21100
C600        C  0.77533836  0.56063275  0.00233579    -0.21100
C601        C  0.74586210  0.43896116  0.99083776    -0.21100
C602        C  0.74844197  0.43979476  0.01250516    -0.21100
C603        C  0.72192075  0.51418373  0.93943979    -0.22200
C604        C  0.71965015  0.49260378  0.94027487    -0.22200
C605        C  0.74943918  0.51897129  0.06336199    -0.22200
C606        C  0.74521362  0.49779433  0.06504011    -0.22200
C607        C  0.74608723  0.53936400  0.95839144    -0.17500
C608        C  0.75962509  0.54241511  0.03350100    -0.17500
C609        C  0.74500593  0.46804244  0.03953053    -0.17500
C610        C  0.73485967  0.46490450  0.96342245    -0.17500
H611        H  0.77968747  0.56890851  0.96884966     0.15400
H612        H  0.78548980  0.57191935  0.01020878     0.15400
H613        H  0.74768463  0.42505247  0.98103797     0.15400
H614        H  0.75283947  0.42670537  0.02263381     0.15400
H615        H  0.71466944  0.52445527  0.92780338     0.13700
H616        H  0.71051212  0.48294195  0.92947942     0.13700
H617        H  0.75009821  0.53008119  0.07638152     0.13700
H618        H  0.74186471  0.48934792  0.07959142     0.13700
H619        H  0.73918929  0.52466501  0.99921847     0.26900
H620        H  0.73302283  0.48732137  0.00163549     0.26900
N621        N  0.89975099  0.41203060  0.25123865    -0.02700
C622        C  0.90123380  0.39164038  0.25744039    -0.00100
C623        C  0.88157852  0.38207010  0.25603437    -0.23000
C624        C  0.86764710  0.39721465  0.24865644    -0.23200
C625        C  0.87931164  0.41546246  0.24569741    -0.00200
H626        H  0.87778848  0.36585435  0.25986042     0.13600
H627        H  0.85104897  0.39490205  0.24502979     0.13600
N628        N  0.91035777  0.61436125  0.23981425    -0.02700
C629        C  0.91402411  0.63407811  0.24736822    -0.00100
C630        C  0.89651996  0.64670098  0.24348241    -0.23000
C631        C  0.88169959  0.63421107  0.23338933    -0.23200
C632        C  0.89068270  0.61442537  0.23122182    -0.00200
H633        H  0.89438155  0.66298581  0.24817528     0.13600
H634        H  0.86601054  0.63899036  0.22838315     0.13600
N635        N  0.10918841  0.40586684  0.25681365    -0.02700
C636        C  0.10692156  0.38572899  0.26352416    -0.00100
C637        C  0.12596378  0.37509558  0.26158727    -0.23000
C638        C  0.14042815  0.38941770  0.25359063    -0.23200
C639        C  0.12961807  0.40820637  0.25069416    -0.00200
H640        H  0.12890605  0.35865049  0.26517728     0.13600
H641        H  0.15668637  0.38612957  0.24924352     0.13600
N642        N  0.11139554  0.60829732  0.24702397    -0.02700
C643        C  0.10963737  0.62864751  0.25318795    -0.00100
C644        C  0.12752212  0.63980018  0.24735410    -0.23000
C645        C  0.14076158  0.62561346  0.23729777    -0.23200
C646        C  0.13041795  0.60633017  0.23727983    -0.00200
H647        H  0.13077051  0.65628521  0.25041945     0.13600
H648        H  0.15612442  0.62908677  0.23052766     0.13600
N649        N  0.97530470  0.50896828  0.24986392    -0.35800
N650        N  0.00815029  0.54044846  0.25218984    -0.56400
N651        N  0.03958708  0.50767730  0.25631810    -0.35800
N652        N  0.00660070  0.47589426  0.25248546    -0.56400
C653        C  0.96488262  0.52619782  0.24273849     0.27800
C654        C  0.96392131  0.49193932  0.24394149     0.27800
C655        C  0.05170135  0.52458806  0.25135746     0.27800
C656        C  0.05081794  0.49025293  0.25117498     0.27800
C657        C  0.99089426  0.55275346  0.25470252     0.36400
C658        C  0.02492395  0.55199457  0.25857251     0.36400
C659        C  0.98890674  0.46448699  0.25611441     0.36400
C660        C  0.02308058  0.46369205  0.25845587     0.36400
C661        C  0.94674613  0.52004696  0.23194880    -0.21100
C662        C  0.94609487  0.49834999  0.23278630    -0.21100
C663        C  0.07084370  0.51783774  0.24293908    -0.21100
C664        C  0.07028253  0.49612714  0.24282353    -0.21100
C665        C  0.99664651  0.57216629  0.26304803    -0.22200
C666        C  0.01829688  0.57166096  0.26555463    -0.22200
C667        C  0.99413146  0.44496612  0.26459057    -0.22200
C668        C  0.01587140  0.44442222  0.26597678    -0.22200
C669        C  0.97049367  0.54722760  0.24746430    -0.17500
C670        C  0.96839229  0.47100442  0.25008409    -0.17500
C671        C  0.04449361  0.46928589  0.25544131    -0.17500
C672        C  0.04613185  0.54584674  0.25522297    -0.17500
H673        H  0.93497186  0.53014207  0.22465380     0.15400
H674        H  0.93374687  0.48843910  0.22624743     0.15400
H675        H  0.08389392  0.52751272  0.23750494     0.15400
H676        H  0.08284915  0.48583249  0.23738270     0.15400
H677        H  0.98640177  0.58545096  0.26644422     0.13700
H678        H  0.02812054  0.58451609  0.27112505     0.13700
H679        H  0.98345586  0.43231336  0.26893470     0.13700
H680        H  0.02528255  0.43129209  0.27164653     0.13700
H681        H  0.98785861  0.50890128  0.26057983     0.26900
H682        H  0.02548558  0.50794940  0.26490405     0.26900
N683        N  0.89816012  0.24670099  0.38259149    -0.02700
C684        C  0.90065739  0.25502868  0.36296767    -0.00100
C685        C  0.88232697  0.25250246  0.35127387    -0.23000
C686        C  0.86796995  0.24252305  0.36433217    -0.23200
C687        C  0.87808438  0.23915708  0.38353801    -0.00200
H688        H  0.87962196  0.25756285  0.33509899     0.13600
H689        H  0.85204526  0.23784972  0.36006869     0.13600
N690        N  0.89094085  0.24541071  0.58391765    -0.02700
C691        C  0.89156370  0.25267693  0.60410241    -0.00100
C692        C  0.87221320  0.24936138  0.61384330    -0.23000
C693        C  0.85929410  0.23984090  0.59900763    -0.23200
C694        C  0.87130117  0.23732928  0.58081037    -0.00200
H695        H  0.86798237  0.25333703  0.62998920     0.13600
H696        H  0.84308455  0.23481043  0.60141900     0.13600
N697        N  0.10028506  0.24494480  0.38421885    -0.02700
C698        C  0.12044413  0.23799890  0.38587186    -0.00100
C699        C  0.13068326  0.23986469  0.36658372    -0.23000
C700        C  0.11608391  0.24824481  0.35258286    -0.23200
C701        C  0.09752694  0.25130916  0.36390923    -0.00200
H702        H  0.14688259  0.23550446  0.36304497     0.13600
H703        H  0.11893166  0.25227152  0.33614433     0.13600
N704        N  0.09618304  0.24728097  0.59397943    -0.02700
C705        C  0.11595849  0.23912253  0.59267838    -0.00100
C706        C  0.12535766  0.23906346  0.61250185    -0.23000
C707        C  0.11065444  0.24730045  0.62644106    -0.23200
C708        C  0.09290005  0.25230330  0.61458693    -0.00200
H709        H  0.14091205  0.23308057  0.61651750     0.13600
H710        H  0.11266304  0.24933598  0.64336551     0.13600
N711        N  0.96639025  0.24688807  0.48614965    -0.35800
N712        N  0.99947988  0.24678308  0.45481101    -0.56400
N713        N  0.03081625  0.24895831  0.48824803    -0.35800
N714        N  0.99738124  0.24772075  0.51957205    -0.56400
C715        C  0.95586251  0.24058340  0.46863647     0.27800
C716        C  0.95480130  0.24080106  0.50307014     0.27800
C717        C  0.04276845  0.24304839  0.47149063     0.27800
C718        C  0.04158579  0.24365992  0.50599446     0.27800
C719        C  0.98264026  0.25130610  0.44240051     0.36400
C720        C  0.01688024  0.25196035  0.44353447     0.36400
C721        C  0.97974295  0.25256602  0.53061062     0.36400
C722        C  0.01391984  0.25359586  0.53172099     0.36400
C723        C  0.93751137  0.23001740  0.47444054    -0.21100
C724        C  0.93683039  0.23015991  0.49627451    -0.21100
C725        C  0.06135816  0.23375846  0.47864154    -0.21100
C726        C  0.06061829  0.23416452  0.50050057    -0.21100
C727        C  0.98933141  0.25962799  0.42319901    -0.22200
C728        C  0.01110310  0.26000102  0.42389994    -0.22200
C729        C  0.98504062  0.26187759  0.54978579    -0.22200
C730        C  0.00681200  0.26248932  0.55051160    -0.22200
C731        C  0.96156169  0.24615093  0.44775133    -0.17500
C732        C  0.95921922  0.24661391  0.52420147    -0.17500
C733        C  0.03513247  0.24871404  0.52682878    -0.17500
C734        C  0.03776227  0.24737380  0.45008046    -0.17500
H735        H  0.92560327  0.22340705  0.46402171     0.15400
H736        H  0.92429910  0.22364376  0.50600345     0.15400
H737        H  0.07422426  0.22760664  0.46911662     0.15400
H738        H  0.07279297  0.22837282  0.51111653     0.15400
H739        H  0.97959897  0.26456300  0.40995595     0.13700
H740        H  0.02148840  0.26525849  0.41129322     0.13700
H741        H  0.97437633  0.26719088  0.56212824     0.13700
H742        H  0.01632100  0.26831684  0.56354497     0.13700
H743        H  0.97913150  0.25733683  0.48645435     0.26900
H744        H  0.01727593  0.25834794  0.48761241     0.26900
O745        O  0.02301720  0.32841467  0.28346344    -0.73600
O746        O  0.97851004  0.29599938  0.30873529    -0.73700
O747        O  0.97998885  0.32981688  0.28247061    -0.73700
O748        O  0.02133684  0.29469399  0.30966763    -0.73800
O749        O  0.02125766  0.31609079  0.33763743    -0.73700
O750        O  0.98010631  0.35138822  0.31033094    -0.73700
O751        O  0.97836531  0.31746896  0.33664628    -0.73700
O752        O  0.02312358  0.34986021  0.31139877    -0.73700
Ni753      Ni  0.00068817  0.31150483  0.29508260     1.25400
Ni754      Ni  0.00069273  0.33449069  0.32498215     1.25400
C755        C  0.03075740  0.34426524  0.29340235     0.88500
C756        C  0.97112868  0.30122698  0.32691596     0.88500
C757        C  0.97309131  0.34635620  0.29193591     0.88500
C758        C  0.02823115  0.29961386  0.32814169     0.88700
O759        O  0.81956046  0.19693245  0.45714693    -0.73600
O760        O  0.79129545  0.16655813  0.50120400    -0.73700
O761        O  0.81900714  0.19878056  0.50003609    -0.73700
O762        O  0.79169606  0.16433003  0.45834287    -0.73800
O763        O  0.81895517  0.14191361  0.45923578    -0.73700
O764        O  0.84581710  0.17602116  0.50180983    -0.73700
O765        O  0.81803880  0.14363834  0.50274244    -0.73700
O766        O  0.84674017  0.17459771  0.45876201    -0.73700
Ni767      Ni  0.80445790  0.18242040  0.47907449     1.25400
Ni768      Ni  0.83333284  0.15816502  0.48063606     1.25400
C769        C  0.83793942  0.19106082  0.45082818     0.88500
C770        C  0.80018644  0.15047459  0.50969366     0.88500
C771        C  0.83664459  0.19291847  0.50821063     0.88500
C772        C  0.80092408  0.14756581  0.45176301     0.88700
O773        O  0.20578673  0.18017462  0.46991413    -0.73600
O774        O  0.17318367  0.20975123  0.51187263    -0.73700
O775        O  0.20469783  0.18110216  0.51284715    -0.73700
O776        O  0.17436360  0.20911132  0.46864832    -0.73800
O777        O  0.15047912  0.18328529  0.46843565    -0.73700
O778        O  0.18081812  0.15527356  0.51300278    -0.73700
O779        O  0.14923696  0.18397938  0.51165667    -0.73700
O780        O  0.18187980  0.15436990  0.47004011    -0.73700
Ni781      Ni  0.19031388  0.19598251  0.49081021     1.25400
Ni782      Ni  0.16472438  0.16833568  0.49076210     1.25400
C783        C  0.19918634  0.16231250  0.46302122     0.88500
C784        C  0.15610296  0.20147322  0.51914148     0.88500
C785        C  0.19773144  0.16370643  0.52043511     0.88500
C786        C  0.15768582  0.20062864  0.46083531     0.88700
O787        O  0.82305228  0.53333407  0.14718972    -0.73600
O788        O  0.85146734  0.49151912  0.18106078    -0.73700
O789        O  0.82138390  0.49014325  0.15051478    -0.73700
O790        O  0.85316457  0.53435087  0.17767357    -0.73800
O791        O  0.82806861  0.53703178  0.20230351    -0.73700
O792        O  0.79594998  0.49340489  0.17486247    -0.73700
O793        O  0.82619311  0.49419346  0.20551130    -0.73700
O794        O  0.79790954  0.53612611  0.17184468    -0.73700
Ni795      Ni  0.83813411  0.51222311  0.16320287     1.25400
Ni796      Ni  0.81116175  0.51527243  0.18950245     1.25400
C797        C  0.80603216  0.54198163  0.15416426     0.88500
C798        C  0.84343399  0.48576394  0.19882891     0.88500
C799        C  0.80354612  0.48436074  0.15835248     0.88500
C800        C  0.84571989  0.54322640  0.19437129     0.88700
O801        O  0.18025250  0.47951770  0.14786879    -0.73600
O802        O  0.15505478  0.52415334  0.17987226    -0.73700
O803        O  0.18034493  0.52244985  0.14556379    -0.73700
O804        O  0.15516936  0.48149689  0.18239160    -0.73800
O805        O  0.18355589  0.48252631  0.20329531    -0.73700
O806        O  0.20904555  0.52331613  0.16621736    -0.73700
O807        O  0.18349956  0.52550808  0.20069736    -0.73700
O808        O  0.20897219  0.48061309  0.16849657    -0.73700
Ni809      Ni  0.16674367  0.50184727  0.16317107     1.25400
Ni810      Ni  0.19730124  0.50301504  0.18544278     1.25400
C811        C  0.19858537  0.47255017  0.15301269     0.88500
C812        C  0.16509801  0.53242141  0.19541873     0.88500
C813        C  0.19867877  0.52989723  0.15005019     0.88500
C814        C  0.16515890  0.47511469  0.19889058     0.88700
O815        O  0.68324715  0.34821207  0.98618091    -0.73600
O816        O  0.65516749  0.31926695  0.03181733    -0.73700
O817        O  0.68305199  0.35138438  0.02954513    -0.73700
O818        O  0.65536190  0.31597640  0.98852145    -0.73800
O819        O  0.68173587  0.29266810  0.99112785    -0.73700
O820        O  0.71011875  0.32880452  0.03088392    -0.73700
O821        O  0.68207129  0.29668503  0.03418191    -0.73700
O822        O  0.70983637  0.32503338  0.98783429    -0.73700
Ni823      Ni  0.66826616  0.33452445  0.00892865     1.25400
Ni824      Ni  0.69689273  0.30998842  0.01103669     1.25400
C825        C  0.70099477  0.34116497  0.97930671     0.88500
C826        C  0.66417600  0.30356531  0.04097883     0.88500
C827        C  0.70098810  0.34572145  0.03726246     0.88500
C828        C  0.66405676  0.29852638  0.98302248     0.88700
O829        O  0.79089362  0.51651039  0.81780950    -0.73600
O830        O  0.81727261  0.46945016  0.79071899    -0.73700
O831        O  0.78959110  0.47413600  0.82312108    -0.73700
O832        O  0.81851076  0.51197430  0.78538147    -0.73800
O833        O  0.84491404  0.51467800  0.80873721    -0.73700
O834        O  0.81695161  0.47520769  0.84547082    -0.73700
O835        O  0.84466698  0.47158513  0.81283359    -0.73700
O836        O  0.81720310  0.51813465  0.84125614    -0.73700
Ni837      Ni  0.80314741  0.49292747  0.80346376     1.25400
Ni838      Ni  0.83192997  0.49495862  0.82788593     1.25400
C839        C  0.79965443  0.52530027  0.83385594     0.88500
C840        C  0.83521236  0.46253965  0.79725926     0.88500
C841        C  0.79861763  0.46817758  0.84032299     0.88500
C842        C  0.83614982  0.52012058  0.79121591     0.88700
O843        O  0.01079218  0.33761328  0.67698283    -0.73600
O844        O  0.96913698  0.30846564  0.64337059    -0.73700
O845        O  0.96741635  0.33786416  0.67451477    -0.73700
O846        O  0.01220101  0.30835498  0.64587014    -0.73800
O847        O  0.01102488  0.28304939  0.67032546    -0.73700
O848        O  0.96585312  0.31203579  0.69839684    -0.73700
O849        O  0.96807355  0.28279322  0.66742958    -0.73700
O850        O  0.00876451  0.31233955  0.70152359    -0.73700
Ni851      Ni  0.98992803  0.32401309  0.65933329     1.25400
Ni852      Ni  0.98838269  0.29667161  0.68526530     1.25400
C853        C  0.01690188  0.32955351  0.69463561     0.88500
C854        C  0.96154797  0.29085256  0.64995855     0.88500
C855        C  0.95892113  0.32958058  0.69101505     0.88500
C856        C  0.01923845  0.29095115  0.65351710     0.88700
O857        O  0.19974271  0.45966069  0.81955790    -0.73600
O858        O  0.16854442  0.50218888  0.78987272    -0.73700
O859        O  0.20124950  0.50239028  0.81796316    -0.73700
O860        O  0.16722591  0.45943997  0.79171373    -0.73800
O861        O  0.14467502  0.46064059  0.81893116    -0.73700
O862        O  0.17821142  0.50441406  0.84469397    -0.73700
O863        O  0.14565649  0.50409973  0.81676951    -0.73700
O864        O  0.17732670  0.46129293  0.84673529    -0.73700
Ni865      Ni  0.18497677  0.48088101  0.80385692     1.25400
Ni866      Ni  0.16059993  0.48268817  0.83273348     1.25400
C867        C  0.19365924  0.45311448  0.83779395     0.88500
C868        C  0.15213956  0.51038861  0.79851346     0.88500
C869        C  0.19522239  0.51067007  0.83551357     0.88500
C870        C  0.15068405  0.45257057  0.80126311     0.88700
O871        O  0.35252227  0.31363801  0.98327347    -0.73600
O872        O  0.31851590  0.34498760  0.02257008    -0.73700
O873        O  0.35015970  0.31659034  0.02678836    -0.73700
O874        O  0.32090124  0.34190162  0.97937775    -0.73800
O875        O  0.29802283  0.31519320  0.97957145    -0.73700
O876        O  0.32589959  0.29114831  0.02767894    -0.73700
O877        O  0.29429072  0.31933820  0.02209001    -0.73700
O878        O  0.32948185  0.28697640  0.98477956    -0.73700
Ni879      Ni  0.33643254  0.33019684  0.00300286     1.25400
Ni880      Ni  0.31114833  0.30222364  0.00357409     1.25400
C881        C  0.34618756  0.29546383  0.97703585     0.88500
C882        C  0.30079403  0.33728347  0.02874381     0.88500
C883        C  0.34232312  0.30004861  0.03559069     0.88500
C884        C  0.30474611  0.33245703  0.97143047     0.88700
O885        O  0.48559616  0.17775150  0.85170094    -0.73600
O886        O  0.53068270  0.15135985  0.82085326    -0.73700
O887        O  0.52857692  0.17620663  0.85546695    -0.73700
O888        O  0.48794240  0.15294404  0.81710267    -0.73800
O889        O  0.49040347  0.18133120  0.79643916    -0.73700
O890        O  0.53127498  0.20469553  0.83487284    -0.73700
O891        O  0.53341823  0.17966799  0.80013484    -0.73700
O892        O  0.48852225  0.20634062  0.83127490    -0.73700
Ni893      Ni  0.50809952  0.16357423  0.83699945     1.25400
Ni894      Ni  0.51101177  0.19402503  0.81492500     1.25400
C895        C  0.47956627  0.19637347  0.84653849     0.88500
C896        C  0.53965504  0.16114130  0.80550641     0.88500
C897        C  0.53684173  0.19420506  0.85134812     0.88500
C898        C  0.48209428  0.16336106  0.80068214     0.88700
O899        O  0.47910141  0.20362541  0.18444303    -0.73600
O900        O  0.52160552  0.16938761  0.21064664    -0.73700
O901        O  0.52229699  0.20319045  0.18441467    -0.73700
O902        O  0.47865688  0.16998084  0.21056301    -0.73800
O903        O  0.47831032  0.14837998  0.18276150    -0.73700
O904        O  0.52211707  0.18191540  0.15637637    -0.73700
O905        O  0.52149136  0.14786122  0.18277314    -0.73700
O906        O  0.47859898  0.18223672  0.15648979    -0.73700
Ni907      Ni  0.50045131  0.18729911  0.19844978     1.25400
Ni908      Ni  0.50015582  0.16434814  0.16856219     1.25400
C909        C  0.47130951  0.19833653  0.16645583     0.88500
C910        C  0.52867765  0.15300747  0.20109625     0.88500
C911        C  0.52969409  0.19799967  0.16619008     0.88500
C912        C  0.47101048  0.15387681  0.20095397     0.88700
O913        O  0.32138363  0.03557875  0.71028984    -0.73600
O914        O  0.28921743  0.99168409  0.68347766    -0.73700
O915        O  0.32066114  0.99290750  0.71239539    -0.73700
O916        O  0.28961513  0.03443415  0.68123624    -0.73800
O917        O  0.31343405  0.03295536  0.65525801    -0.73700
O918        O  0.34458666  0.99133008  0.68649741    -0.73700
O919        O  0.31309777  0.99016137  0.65756072    -0.73700
O920        O  0.34525463  0.03401556  0.68437250    -0.73700
Ni921      Ni  0.30437396  0.01376925  0.69775589     1.25400
Ni922      Ni  0.32993024  0.01211592  0.66998458     1.25400
C923        C  0.33878698  0.04191190  0.70194085     0.88500
C924        C  0.29606792  0.98332933  0.66627896     0.88500
C925        C  0.33756877  0.98497350  0.70446929     0.88500
C926        C  0.29625979  0.04052096  0.66304062     0.88700
O927        O  0.51726232  0.81423218  0.83642913    -0.73600
O928        O  0.47669931  0.85026359  0.80963877    -0.73700
O929        O  0.47434394  0.81642803  0.83571893    -0.73700
O930        O  0.51982380  0.84801169  0.81022742    -0.73800
O931        O  0.51921651  0.82620233  0.78254441    -0.73700
O932        O  0.47370373  0.79506395  0.80773602    -0.73700
O933        O  0.47620878  0.82875721  0.78172558    -0.73700
O934        O  0.51653412  0.79259993  0.80864398    -0.73700
Ni935      Ni  0.49706310  0.83302505  0.82399351     1.25400
Ni936      Ni  0.49638912  0.80994594  0.79415632     1.25400
C937        C  0.52372835  0.79754304  0.82697795     0.88500
C938        C  0.46937002  0.84518039  0.79140983     0.88500
C939        C  0.46643201  0.80053707  0.82588614     0.88500
C940        C  0.52731850  0.84200725  0.79229396     0.88700
O941        O  0.33801384  0.68218036  0.00421704    -0.73600
O942        O  0.31216810  0.64859157  0.96135321    -0.73700
O943        O  0.33952111  0.68133804  0.96132402    -0.73700
O944        O  0.31038985  0.64991457  0.00442048    -0.73800
O945        O  0.28343174  0.67254297  0.00234721    -0.73700
O946        O  0.31264233  0.70404220  0.95991880    -0.73700
O947        O  0.28522442  0.67117723  0.95928731    -0.73700
O948        O  0.31119588  0.70498783  0.00301800    -0.73700
Ni949      Ni  0.32595231  0.66470357  0.98285707     1.25400
Ni950      Ni  0.29714243  0.68899594  0.98106537     1.25400
C951        C  0.32886462  0.69886092  0.01105517     0.88500
C952        C  0.29466415  0.65435937  0.95292132     0.88500
C953        C  0.33082924  0.69788787  0.95343429     0.88500
C954        C  0.29221860  0.65638547  0.01078931     0.88700
O955        O  0.51045171  0.78133265  0.16932198    -0.73600
O956        O  0.46600324  0.80856256  0.20037507    -0.73700
O957        O  0.46750615  0.78059045  0.16800980    -0.73700
O958        O  0.50902319  0.80909749  0.20175520    -0.73800
O959        O  0.50954485  0.83551867  0.17845123    -0.73700
O960        O  0.46750131  0.80709571  0.14485598    -0.73700
O961        O  0.46640508  0.83516524  0.17732172    -0.73700
O962        O  0.51048271  0.80776017  0.14604193    -0.73700
Ni963      Ni  0.48820628  0.79396477  0.18568227     1.25400
Ni964      Ni  0.48846042  0.82234644  0.16086024     1.25400
C965        C  0.51799874  0.79017505  0.15265240     0.88500
C966        C  0.45874756  0.82634253  0.19393846     0.88500
C967        C  0.46053901  0.78904576  0.15091346     0.88500
C968        C  0.51651957  0.82680795  0.19546202     0.88700
O969        O  0.34086534  0.01344299  0.31017326    -0.73600
O970        O  0.31115055  0.97264168  0.34360259    -0.73700
O971        O  0.34065199  0.97066406  0.31234197    -0.73700
O972        O  0.31126934  0.01537735  0.34127520    -0.73800
O973        O  0.28574834  0.01429185  0.31694071    -0.73700
O974        O  0.31492702  0.96987068  0.28820958    -0.73700
O975        O  0.28552809  0.97159369  0.31935665    -0.73700
O976        O  0.31529927  0.01256782  0.28588267    -0.73700
Ni977      Ni  0.32689997  0.99307463  0.32771326     1.25400
Ni978      Ni  0.29947689  0.99203519  0.30174717     1.25400
C979        C  0.33302512  0.01988306  0.29257710     0.88500
C980        C  0.29345391  0.96526904  0.33698983     0.88500
C981        C  0.33252115  0.96279665  0.29545795     0.88500
C982        C  0.29368397  0.02233034  0.33378597     0.88700
O983        O  0.18583427  0.84573456  0.48648988    -0.73600
O984        O  0.15510444  0.82041407  0.53227762    -0.73700
O985        O  0.18554798  0.85023901  0.52940457    -0.73700
O986        O  0.15560022  0.81563924  0.48909489    -0.73800
O987        O  0.18021467  0.79064914  0.49277596    -0.73700
O988        O  0.21068853  0.82570095  0.53163942    -0.73700
O989        O  0.18034753  0.79610249  0.53549506    -0.73700
O990        O  0.21051039  0.82073985  0.48879521    -0.73700
Ni991      Ni  0.16961952  0.83388153  0.50918878     1.25400
Ni992      Ni  0.19631508  0.80743324  0.51224440     1.25400
C993        C  0.20308086  0.83735184  0.47984945     0.88500
C994        C  0.16293014  0.80437213  0.54188859     0.88500
C995        C  0.20294184  0.84346249  0.53747429     0.88500
C996        C  0.16311556  0.79744310  0.48423021     0.88700
O997        O  0.98812259  0.67374644  0.35300325    -0.73600
O998        O  0.03264599  0.65071509  0.31867644    -0.73700
O999        O  0.03144456  0.67282318  0.35511853    -0.73700
O1000       O  0.98971118  0.65148844  0.31648798    -0.73800
O1001       O  0.99105763  0.68139882  0.29803128    -0.73700
O1002       O  0.03275049  0.70294531  0.33678057    -0.73700
O1003       O  0.03407826  0.68062476  0.30015535    -0.73700
O1004       O  0.98992223  0.70383185  0.33462926    -0.73700
Ni1005     Ni  0.01040896  0.66115081  0.33651199     1.25400
Ni1006     Ni  0.01199597  0.69327105  0.31674824     1.25400
C1007       C  0.98159990  0.69252761  0.34924486     0.88500
C1008       C  0.04085426  0.66191014  0.30386967     0.88500
C1009       C  0.03924096  0.69123022  0.35203292     0.88500
C1010       C  0.98337002  0.66286637  0.30091464     0.88700
O1011       O  0.85504546  0.81609176  0.48142397    -0.73600
O1012       O  0.82025635  0.84646873  0.52111902    -0.73700
O1013       O  0.85264794  0.81876362  0.52468333    -0.73700
O1014       O  0.82287728  0.84394360  0.47784776    -0.73800
O1015       O  0.80035504  0.81693879  0.47765178    -0.73700
O1016       O  0.82905198  0.79268464  0.52549369    -0.73700
O1017       O  0.79675179  0.82023338  0.52049384    -0.73700
O1018       O  0.83239024  0.78913563  0.48262839    -0.73700
Ni1019     Ni  0.83854494  0.83226742  0.50126881     1.25400
Ni1020     Ni  0.81384007  0.80381441  0.50158498     1.25400
C1021       C  0.84920598  0.79771192  0.47523124     0.88500
C1022       C  0.80280217  0.83822370  0.52746829     0.88500
C1023       C  0.84545962  0.80184664  0.53321495     0.88500
C1024       C  0.80699181  0.83434603  0.46962924     0.88700
O1025       O  0.70717848  0.95842364  0.31045200    -0.73600
O1026       O  0.67745894  0.00187062  0.28034413    -0.73700
O1027       O  0.70849071  0.00129657  0.31019550    -0.73700
O1028       O  0.67621461  0.95902293  0.28075550    -0.73800
O1029       O  0.65208916  0.95968976  0.30648679    -0.73700
O1030       O  0.68370181  0.00247387  0.33537744    -0.73700
O1031       O  0.65288787  0.00243771  0.30565061    -0.73700
O1032       O  0.68309089  0.95936624  0.33618877    -0.73700
Ni1033     Ni  0.69321242  0.98012158  0.29454170     1.25400
Ni1034     Ni  0.66710446  0.98101125  0.32184530     1.25400
C1035       C  0.70006634  0.95153981  0.32819470     0.88500
C1036       C  0.66021182  0.00938260  0.28800646     0.88500
C1037       C  0.70113941  0.00915716  0.32743132     0.88500
C1038       C  0.65888500  0.95220848  0.28887480     0.88700
O1039       O  0.97860977  0.70060183  0.68373156    -0.73600
O1040       O  0.02088535  0.66429597  0.70768360    -0.73700
O1041       O  0.02180915  0.70049164  0.68448644    -0.73700
O1042       O  0.97789973  0.66428490  0.70643783    -0.73800
O1043       O  0.97873691  0.64574057  0.67639780    -0.73700
O1044       O  0.02212571  0.68197800  0.65452416    -0.73700
O1045       O  0.02216003  0.64590115  0.67756566    -0.73700
O1046       O  0.97896952  0.68193789  0.65385440    -0.73700
Ni1047     Ni  0.99980420  0.68308799  0.69663736     1.25400
Ni1048     Ni  0.00054812  0.66320204  0.66454917     1.25400
C1049       C  0.97146618  0.69714318  0.66503055     0.88500
C1050       C  0.02868761  0.64929378  0.69655651     0.88500
C1051       C  0.02931766  0.69714387  0.66583098     0.88500
C1052       C  0.97081891  0.64927806  0.69476414     0.88700
O1053       O  0.68170386  0.97947565  0.70070007    -0.73600
O1054       O  0.71024412  0.02169686  0.66741174    -0.73700
O1055       O  0.68369325  0.02235110  0.70131399    -0.73700
O1056       O  0.70822889  0.97896334  0.66683853    -0.73800
O1057       O  0.68022644  0.98036915  0.64523654    -0.73700
O1058       O  0.65579008  0.02382118  0.67977663    -0.73700
O1059       O  0.68218945  0.02356764  0.64597441    -0.73700
O1060       O  0.65392358  0.98092842  0.67898669    -0.73700
Ni1061     Ni  0.69694946  0.00057890  0.68483423     1.25400
Ni1062     Ni  0.66707813  0.00225233  0.66168176     1.25400
C1063       C  0.66319225  0.97304407  0.69528423     0.88500
C1064       C  0.70078247  0.02977227  0.65134670     0.88500
C1065       C  0.66573644  0.03036554  0.69623894     0.88500
C1066       C  0.69801391  0.97224323  0.65065458     0.88700
O1067       O  0.64833888  0.68193895  0.96811020    -0.73600
O1068       O  0.68072203  0.65482890  0.01212867    -0.73700
O1069       O  0.64923373  0.68381934  0.01128003    -0.73700
O1070       O  0.67965148  0.65278404  0.96876343    -0.73800
O1071       O  0.70334418  0.67869684  0.96670935    -0.73700
O1072       O  0.67354737  0.70920287  0.01005823    -0.73700
O1073       O  0.70518007  0.68011805  0.00971281    -0.73700
O1074       O  0.67216074  0.70777831  0.96694817    -0.73700
Ni1075     Ni  0.66364088  0.66741389  0.99014960     1.25400
Ni1076     Ni  0.68939035  0.69485613  0.98832745     1.25400
C1077       C  0.65512669  0.69924728  0.96000138     0.88500
C1078       C  0.69824736  0.66311438  0.01821143     0.88500
C1079       C  0.65645646  0.70152944  0.01793050     0.88500
C1080       C  0.69627061  0.66081967  0.96030629     0.88700
C1081       C  0.07325717  0.26158705  0.62347598    -0.04700
C1082       C  0.06386812  0.25217730  0.64126659    -0.32100
C1083       C  0.04614613  0.26126095  0.65103403     0.37100
C1084       C  0.03737791  0.28018531  0.64297889    -0.05000
C1085       C  0.04679552  0.28946939  0.62501721    -0.32000
C1086       C  0.06457186  0.28035986  0.61530032     0.37000
H1087       H  0.07046659  0.23776750  0.64777574     0.17400
O1088       O  0.03770588  0.25150390  0.66852402    -0.59500
H1089       H  0.04070416  0.30416282  0.61867508     0.17400
O1090       O  0.07430459  0.29075890  0.59887434    -0.59600
H1091       H  0.06372914  0.29118344  0.58722810     0.44400
H1092       H  0.04584108  0.25711172  0.68075004     0.44400
C1093       C  0.14480818  0.21181404  0.53708037    -0.04700
C1094       C  0.15500487  0.22803545  0.54838884    -0.32100
C1095       C  0.14574156  0.23694188  0.56646727     0.37100
C1096       C  0.12568756  0.23013595  0.57330035    -0.05000
C1097       C  0.11522175  0.21423766  0.56192069    -0.32000
C1098       C  0.12465404  0.20494090  0.54408241     0.37000
H1099       H  0.17051306  0.23355705  0.54355368     0.17400
O1100       O  0.15620937  0.25267518  0.57710579    -0.59500
H1101       H  0.09991507  0.20856861  0.56720160     0.17400
O1102       O  0.11395535  0.18922360  0.53364593    -0.59600
H1103       H  0.11689500  0.17618344  0.54185062     0.44400
H1104       H  0.16675865  0.24531619  0.58615605     0.44400
C1105       C  0.08083734  0.24797308  0.57722772    -0.04700
C1106       C  0.06319777  0.23463435  0.57810435    -0.32100
C1107       C  0.04839568  0.23448661  0.56162073     0.37100
C1108       C  0.05095387  0.24821253  0.54421870    -0.05000
C1109       C  0.06865225  0.26159667  0.54338913    -0.32000
C1110       C  0.08374860  0.26128254  0.55963757     0.37000
H1111       H  0.06123306  0.22400833  0.59142553     0.17400
O1112       O  0.03192730  0.22035347  0.56217425    -0.59500
H1113       H  0.07073585  0.27225776  0.53010404     0.17400
O1114       O  0.10084878  0.27459592  0.55872019    -0.59600
H1115       H  0.11074247  0.26800794  0.54844564     0.44400
H1116       H  0.02212089  0.22569103  0.57322823     0.44400
C1117       C  0.04481580  0.28630813  0.33830119    -0.04700
C1118       C  0.05347874  0.26916453  0.32704796    -0.32100
C1119       C  0.07017127  0.25726534  0.33548922     0.37100
C1120       C  0.07852291  0.26228432  0.35555695    -0.05000
C1121       C  0.06953432  0.27894085  0.36710544    -0.32000
C1122       C  0.05288892  0.29091382  0.35870159     0.37000
H1123       H  0.04760798  0.26514862  0.31141564     0.17400
O1124       O  0.07841682  0.24094530  0.32382474    -0.59500
H1125       H  0.07599054  0.28334483  0.38237926     0.17400
O1126       O  0.04489850  0.30723566  0.37053844    -0.59600
H1127       H  0.05432735  0.31940250  0.36754871     0.44400
H1128       H  0.07076790  0.22818608  0.32876606     0.44400
C1129       C  0.12977329  0.22885210  0.40527243    -0.04700
C1130       C  0.11974410  0.21178399  0.41519646    -0.32100
C1131       C  0.12832635  0.20263349  0.43347900     0.37100
C1132       C  0.14725460  0.21070550  0.44228202    -0.05000
C1133       C  0.15703341  0.22811692  0.43239664    -0.32000
C1134       C  0.14844550  0.23713202  0.41404894     0.37000
H1135       H  0.10536579  0.20524106  0.40852542     0.17400
O1136       O  0.11797207  0.18590142  0.44259755    -0.59500
H1137       H  0.17157593  0.23466919  0.43870938     0.17400
O1138       O  0.15837722  0.25408382  0.40486366    -0.59600
H1139       H  0.15137357  0.26669136  0.41102785     0.44400
H1140       H  0.12197020  0.17344734  0.43394533     0.44400
C1141       C  0.05466065  0.24619923  0.43369903    -0.04700
C1142       C  0.05215986  0.23245991  0.41639563    -0.32100
C1143       C  0.06707409  0.23204806  0.40003370     0.37100
C1144       C  0.08488061  0.24525045  0.40095584    -0.05000
C1145       C  0.08787372  0.25844148  0.41854224    -0.32000
C1146       C  0.07275001  0.25920223  0.43475089     0.37000
H1147       H  0.03843656  0.22222711  0.41548465     0.17400
O1148       O  0.06422442  0.21868346  0.38318023    -0.59500
H1149       H  0.10173627  0.26848391  0.41936147     0.17400
O1150       O  0.07561757  0.27286409  0.45137335    -0.59600
H1151       H  0.06791089  0.28589113  0.44728130     0.44400
H1152       H  0.07060242  0.20510174  0.38766278     0.44400
C1153       C  0.94460052  0.28004407  0.63752705    -0.04700
C1154       C  0.93806380  0.28844829  0.61789995    -0.32100
C1155       C  0.92114646  0.27950832  0.60654563     0.37100
C1156       C  0.91034695  0.26188970  0.61481547    -0.05000
C1157       C  0.91699576  0.25326484  0.63416774    -0.32000
C1158       C  0.93393227  0.26205653  0.64546234     0.37000
H1159       H  0.94577934  0.30230706  0.61145134     0.17400
O1160       O  0.91434887  0.28898263  0.58818086    -0.59500
H1161       H  0.90887845  0.23964769  0.64066956     0.17400
O1162       O  0.93969364  0.25297022  0.66435252    -0.59600
H1163       H  0.93038129  0.25957956  0.67516077     0.44400
H1164       H  0.92632916  0.28773294  0.57805933     0.44400
C1165       C  0.86352937  0.22673866  0.56126944    -0.04700
C1166       C  0.84347466  0.23216463  0.55342542    -0.32100
C1167       C  0.83478713  0.22175577  0.53590399     0.37100
C1168       C  0.84618300  0.20542074  0.52575307    -0.05000
C1169       C  0.86641911  0.20014987  0.53349495    -0.32000
C1170       C  0.87495451  0.21041101  0.55123458     0.37000
H1171       H  0.83431526  0.24443777  0.56112165     0.17400
O1172       O  0.81468783  0.22706279  0.52956576    -0.59500
H1173       H  0.87544795  0.18753434  0.52622186     0.17400
O1174       O  0.89393076  0.20350714  0.55921552    -0.59600
H1175       H  0.89019515  0.19299132  0.57025285     0.44400
H1176       H  0.81650580  0.23937250  0.52001267     0.44400
C1177       C  0.90803100  0.24582292  0.56897233    -0.04700
C1178       C  0.92663228  0.23455486  0.57330570    -0.32100
C1179       C  0.94324245  0.23431927  0.55869371     0.37100
C1180       C  0.94174808  0.24635369  0.53994092    -0.05000
C1181       C  0.92323012  0.25797202  0.53586976    -0.32000
C1182       C  0.90625276  0.25742047  0.55007432     0.37000
H1183       H  0.92791197  0.22544469  0.58779536     0.17400
O1184       O  0.96077318  0.22216877  0.56277834    -0.59500
H1185       H  0.92191884  0.26737175  0.52155978     0.17400
O1186       O  0.88837788  0.26904250  0.54597202    -0.59600
H1187       H  0.88076145  0.26119996  0.53466565     0.44400
H1188       H  0.95847393  0.20890706  0.55478222     0.44400
C1189       C  0.91978550  0.26591790  0.35497964    -0.04700
C1190       C  0.92876910  0.25927594  0.33581042    -0.32100
C1191       C  0.94576113  0.27021506  0.32675070     0.37100
C1192       C  0.95392459  0.28847245  0.33674048    -0.05000
C1193       C  0.94507311  0.29483757  0.35621820    -0.32000
C1194       C  0.92806440  0.28383081  0.36523205     0.37000
H1195       H  0.92243170  0.24558264  0.32770424     0.17400
O1196       O  0.95379286  0.26317786  0.30781697    -0.59500
H1197       H  0.95094248  0.30875345  0.36427413     0.17400
O1198       O  0.91907644  0.29132756  0.38354009    -0.59600
H1199       H  0.90659800  0.29964664  0.37889431     0.44400
H1200       H  0.96413816  0.25202395  0.31166827     0.44400
C1201       C  0.86844478  0.22778039  0.40173060    -0.04700
C1202       C  0.87957186  0.21147645  0.41190504    -0.32100
C1203       C  0.87008538  0.19956633  0.42807180     0.37100
C1204       C  0.84891769  0.20364563  0.43417140    -0.05000
C1205       C  0.83800837  0.22028653  0.42419230    -0.32000
C1206       C  0.84753660  0.23220619  0.40811237     0.37000
H1207       H  0.89550949  0.20751980  0.40695862     0.17400
O1208       O  0.88162461  0.18380359  0.43750778    -0.59500
H1209       H  0.82187724  0.22405776  0.42868896     0.17400
O1210       O  0.83646814  0.24857382  0.39911133    -0.59600
H1211       H  0.82568605  0.24183837  0.38986964     0.44400
H1212       H  0.88854558  0.19055263  0.44989374     0.44400
C1213       C  0.91381654  0.24611393  0.39909367    -0.04700
C1214       C  0.91095308  0.25822621  0.41743030    -0.32100
C1215       C  0.92651850  0.25859460  0.43323620     0.37100
C1216       C  0.94494740  0.24618977  0.43103131    -0.05000
C1217       C  0.94748608  0.23364469  0.41285645    -0.32000
C1218       C  0.93221532  0.23384808  0.39677473     0.37000
H1219       H  0.89687677  0.26786743  0.41912268     0.17400
O1220       O  0.92407669  0.27175089  0.45035643    -0.59500
H1221       H  0.96142750  0.22381047  0.41108972     0.17400
O1222       O  0.93496797  0.22150618  0.37913005    -0.59600
H1223       H  0.94558296  0.22904032  0.37034494     0.44400
H1224       H  0.91266305  0.26535446  0.45905789     0.44400
C1225       C  0.09195318  0.63723537  0.26589885    -0.04700
C1226       C  0.08695491  0.62785523  0.28539292    -0.32100
C1227       C  0.07052081  0.63576431  0.29797125     0.37100
C1228       C  0.05846486  0.65321475  0.29093895    -0.05000
C1229       C  0.06362703  0.66263816  0.27138627    -0.32000
C1230       C  0.08032147  0.65485529  0.25898396     0.37000
H1231       H  0.09614463  0.61458684  0.29112582     0.17400
O1232       O  0.06667232  0.62647876  0.31725003    -0.59500
H1233       H  0.05463442  0.67602067  0.26559038     0.17400
O1234       O  0.08464745  0.66405848  0.23976809    -0.59600
H1235       H  0.09318606  0.67676569  0.24315690     0.44400
H1236       H  0.07542091  0.63449449  0.32755039     0.44400
C1237       C  0.15552509  0.55054478  0.20701926    -0.04700
C1238       C  0.16785655  0.56205815  0.22154551    -0.32100
C1239       C  0.15973293  0.58003335  0.23163895     0.37100
C1240       C  0.13887681  0.58676646  0.22748960    -0.05000
C1241       C  0.12639850  0.57516327  0.21327871    -0.32000
C1242       C  0.13442382  0.55713768  0.20323367     0.37000
H1243       H  0.18401732  0.55735343  0.22490713     0.17400
O1244       O  0.17211728  0.59060986  0.24601313    -0.59500
H1245       H  0.11048996  0.58032005  0.20950092     0.17400
O1246       O  0.12153571  0.54636255  0.18946624    -0.59600
H1247       H  0.11278665  0.53703012  0.19854676     0.44400
H1248       H  0.18230626  0.59887955  0.23736807     0.44400
C1249       C  0.06277033  0.56241077  0.25354754    -0.04700
C1250       C  0.08066001  0.56172337  0.26683312    -0.32100
C1251       C  0.09696387  0.57654971  0.26453879     0.37100
C1252       C  0.09526051  0.59249770  0.24916724    -0.05000
C1253       C  0.07733284  0.59342876  0.23614208    -0.32000
C1254       C  0.06124165  0.57838954  0.23804970     0.37000
H1255       H  0.08202490  0.54954631  0.27883158     0.17400
O1256       O  0.11417871  0.57580951  0.27778144    -0.59500
H1257       H  0.07607371  0.60568757  0.22422379     0.17400
O1258       O  0.04452084  0.57881350  0.22412504    -0.59600
H1259       H  0.03592783  0.59126463  0.22824394     0.44400
H1260       H  0.12500474  0.56752908  0.26998990     0.44400
C1261       C  0.08678846  0.37602375  0.27061036    -0.04700
C1262       C  0.07905175  0.35825760  0.25991833    -0.32100
C1263       C  0.06036452  0.34830187  0.26649621     0.37100
C1264       C  0.04924381  0.35582924  0.28445367    -0.05000
C1265       C  0.05684758  0.37398771  0.29481096    -0.32000
C1266       C  0.07546823  0.38399504  0.28807510     0.37000
H1267       H  0.08757698  0.35205165  0.24636192     0.17400
O1268       O  0.05363305  0.33078344  0.25565749    -0.59500
H1269       H  0.04866286  0.38020861  0.30855864     0.17400
O1270       O  0.08284628  0.40111402  0.29912876    -0.59600
H1271       H  0.09028814  0.39515899  0.31162800     0.44400
H1272       H  0.04504038  0.33632617  0.24371038     0.44400
C1273       C  0.15542002  0.45876402  0.21283535    -0.04700
C1274       C  0.16598489  0.45201191  0.23133905    -0.32100
C1275       C  0.15749603  0.43597958  0.24415750     0.37100
C1276       C  0.13809815  0.42647842  0.23870241    -0.05000
C1277       C  0.12739220  0.43338968  0.22053036    -0.32000
C1278       C  0.13584357  0.44922145  0.20760878     0.37000
H1279       H  0.18100793  0.45897999  0.23580426     0.17400
O1280       O  0.16838649  0.42957256  0.26185830    -0.59500
H1281       H  0.11275140  0.42589814  0.21578194     0.17400
O1282       O  0.12487969  0.45491550  0.18970995    -0.59600
H1283       H  0.12959428  0.44488605  0.17858850     0.44400
H1284       H  0.16197861  0.43754350  0.27377887     0.44400
C1285       C  0.09297716  0.42171384  0.25625744    -0.04700
C1286       C  0.09420256  0.43893654  0.27009004    -0.32100
C1287       C  0.07811975  0.45407994  0.27046422     0.37100
C1288       C  0.06100074  0.45257855  0.25618455    -0.05000
C1289       C  0.05989657  0.43534334  0.24222699    -0.32000
C1290       C  0.07566750  0.41982367  0.24238593     0.37000
H1291       H  0.10741926  0.44024767  0.28097482     0.17400
O1292       O  0.07923533  0.47030935  0.28481234    -0.59500
H1293       H  0.04682393  0.43399209  0.23116619     0.17400
O1294       O  0.07414489  0.40284847  0.22898631    -0.59600
H1295       H  0.07871658  0.40813138  0.21490805     0.44400
H1296       H  0.07004035  0.46592170  0.29678540     0.44400
C1297       C  0.93289546  0.64082658  0.25990754    -0.04700
C1298       C  0.94097043  0.62776788  0.27598988    -0.32100
C1299       C  0.95770857  0.63439285  0.28897206     0.37100
C1300       C  0.96662820  0.65470065  0.28634361    -0.05000
C1301       C  0.95873542  0.66764620  0.26999111    -0.32000
C1302       C  0.94214020  0.66085856  0.25685757     0.37000
H1303       H  0.93382378  0.61260052  0.27917251     0.17400
O1304       O  0.96504859  0.62082881  0.30427022    -0.59500
H1305       H  0.96524793  0.68326265  0.26747502     0.17400
O1306       O  0.93493461  0.67410051  0.24121665    -0.59600
H1307       H  0.94160040  0.66892517  0.22796278     0.44400
H1308       H  0.95556307  0.62296210  0.31662928     0.44400
C1309       C  0.87969448  0.59592023  0.22187991    -0.04700
C1310       C  0.85969851  0.59021472  0.22964263    -0.32100
C1311       C  0.84865985  0.57299108  0.22117184     0.37100
C1312       C  0.85746843  0.56112518  0.20432892    -0.05000
C1313       C  0.87748840  0.56708640  0.19643171    -0.32000
C1314       C  0.88847331  0.58437340  0.20495174     0.37000
H1315       H  0.85261065  0.59913159  0.24247987     0.17400
O1316       O  0.82898078  0.56837095  0.22914054    -0.59500
H1317       H  0.88457872  0.55853804  0.18335646     0.17400
O1318       O  0.90743629  0.59023577  0.19612169    -0.59600
H1319       H  0.90387641  0.60158094  0.18587768     0.44400
H1320       H  0.83165811  0.55940002  0.24176023     0.44400
C1321       C  0.95443910  0.56408675  0.24452706    -0.04700
C1322       C  0.93560317  0.56356176  0.25636075    -0.32100
C1323       C  0.92057375  0.57965348  0.25426015     0.37100
C1324       C  0.92465916  0.59680120  0.24073452    -0.05000
C1325       C  0.94330041  0.59722361  0.22870432    -0.32000
C1326       C  0.95794704  0.58075587  0.23015512     0.37000
H1327       H  0.93271532  0.55078119  0.26741798     0.17400
O1328       O  0.90260220  0.57929653  0.26647337    -0.59500
H1329       H  0.94634112  0.61034833  0.21811835     0.17400
O1330       O  0.97575990  0.58118691  0.21769223    -0.59600
H1331       H  0.97257797  0.57168352  0.20561902     0.44400
H1332       H  0.89289813  0.56932843  0.25922322     0.44400
C1333       C  0.92085114  0.38104817  0.26489835    -0.04700
C1334       C  0.93323201  0.39023641  0.28091635    -0.32100
C1335       C  0.95089556  0.37963576  0.28921123     0.37100
C1336       C  0.95621651  0.35926765  0.28177517    -0.05000
C1337       C  0.94438755  0.35064083  0.26497732    -0.32000
C1338       C  0.92693712  0.36138594  0.25652983     0.37000
H1339       H  0.92889027  0.40544194  0.28744613     0.17400
O1340       O  0.96254979  0.38921225  0.30484248    -0.59500
H1341       H  0.94828763  0.33521867  0.25867721     0.17400
O1342       O  0.91578123  0.35241335  0.24018940    -0.59600
H1343       H  0.92266113  0.35770921  0.22708107     0.44400
H1344       H  0.97398035  0.39686490  0.29726959     0.44400
C1345       C  0.87117663  0.43467624  0.23499139    -0.04700
C1346       C  0.88145238  0.44231426  0.21683398    -0.32100
C1347       C  0.87291787  0.45909264  0.20510767     0.37100
C1348       C  0.85379837  0.46881214  0.21162272    -0.05000
C1349       C  0.84395987  0.46149476  0.23029937    -0.32000
C1350       C  0.85244734  0.44457460  0.24185520     0.37000
H1351       H  0.89576920  0.43471742  0.21120685     0.17400
O1352       O  0.88336387  0.46564170  0.18719943    -0.59500
H1353       H  0.82936009  0.46861597  0.23581584     0.17400
O1354       O  0.84215700  0.43766796  0.25972212    -0.59600
H1355       H  0.84940981  0.44478280  0.27170333     0.44400
H1356       H  0.87876497  0.45581100  0.17585960     0.44400
C1357       C  0.91670869  0.42705392  0.25054567    -0.04700
C1358       C  0.93437266  0.42321499  0.23765816    -0.32100
C1359       C  0.95126753  0.43744523  0.23723004     0.37100
C1360       C  0.95075647  0.45554647  0.25017306    -0.05000
C1361       C  0.93301567  0.45933936  0.26306314    -0.32000
C1362       C  0.91603881  0.44521943  0.26327578     0.37000
H1363       H  0.93489948  0.40920060  0.22784373     0.17400
O1364       O  0.96820665  0.43354101  0.22418187    -0.59500
H1365       H  0.93243027  0.47324474  0.27304903     0.17400
O1366       O  0.89900293  0.44904096  0.27621778    -0.59600
H1367       H  0.90253878  0.44210893  0.28987134     0.44400
H1368       H  0.96514435  0.44144380  0.21094994     0.44400
C1369       C  0.73451053  0.63777001  0.07015719    -0.04700
C1370       C  0.71276197  0.64184706  0.07247213    -0.32100
C1371       C  0.70063963  0.64912226  0.05532461     0.37100
C1372       C  0.71041303  0.65338025  0.03572214    -0.05000
C1373       C  0.73222162  0.64951339  0.03341800    -0.32000
C1374       C  0.74417870  0.64131005  0.05034693     0.37000
H1375       H  0.70513085  0.63926446  0.08765179     0.17400
O1376       O  0.67950201  0.65326480  0.05824063    -0.59500
H1377       H  0.73998933  0.65286920  0.01846078     0.17400
O1378       O  0.76549786  0.63796049  0.04776719    -0.59600
H1379       H  0.76661939  0.62482944  0.03927855     0.44400
H1380       H  0.67232139  0.63944317  0.05661640     0.44400
C1381       C  0.77578403  0.59339130  0.12095143    -0.04700
C1382       C  0.79774310  0.59050063  0.11936609    -0.32100
C1383       C  0.80773192  0.57351483  0.12960807     0.37100
C1384       C  0.79574294  0.55928065  0.14199881    -0.05000
C1385       C  0.77373523  0.56239193  0.14366888    -0.32000
C1386       C  0.76376328  0.57918117  0.13314560     0.37000
H1387       H  0.80722118  0.60164505  0.11042708     0.17400
O1388       O  0.82936291  0.57176167  0.12846492    -0.59500
H1389       H  0.76421301  0.55177543  0.15319500     0.17400
O1390       O  0.74231113  0.58190729  0.13531733    -0.59600
H1391       H  0.73596770  0.57463320  0.12292554     0.44400
H1392       H  0.83213797  0.56366629  0.11528989     0.44400
C1393       C  0.75825596  0.59533937  0.07583803    -0.04700
C1394       C  0.77783708  0.58743810  0.06882702    -0.32100
C1395       C  0.77872110  0.57016793  0.05500700     0.37100
C1396       C  0.75981650  0.56111573  0.04752569    -0.05000
C1397       C  0.74028938  0.56909731  0.05445096    -0.32000
C1398       C  0.73940036  0.58593126  0.06870705     0.37000
H1399       H  0.79242176  0.59460455  0.07424944     0.17400
O1400       O  0.79802246  0.56214623  0.04910260    -0.59500
H1401       H  0.72566420  0.56180999  0.04919787     0.17400
O1402       O  0.72018544  0.59221122  0.07671127    -0.59600
H1403       H  0.71185080  0.59719966  0.06434079     0.44400
H1404       H  0.80085977  0.55048509  0.05921784     0.44400
C1405       C  0.71083218  0.35833225  0.05447209    -0.04700
C1406       C  0.69785402  0.36792851  0.06983287    -0.32100
C1407       C  0.70672985  0.37832180  0.08739130     0.37100
C1408       C  0.72886322  0.37966607  0.08950190    -0.05000
C1409       C  0.74186471  0.37053405  0.07398398    -0.32000
C1410       C  0.73303716  0.35975089  0.05668281     0.37000
H1411       H  0.68076669  0.36668961  0.06866200     0.17400
O1412       O  0.69372943  0.38640569  0.10283833    -0.59500
H1413       H  0.75894481  0.37142959  0.07553017     0.17400
O1414       O  0.74626712  0.35046023  0.04216971    -0.59600
H1415       H  0.74866116  0.36136339  0.03113445     0.44400
H1416       H  0.68619137  0.39839743  0.09611291     0.44400
C1417       C  0.76958173  0.43072450  0.13380243    -0.04700
C1418       C  0.75932698  0.45029696  0.13578257    -0.32100
C1419       C  0.77029516  0.46803025  0.14344174     0.37100
C1420       C  0.79192984  0.46644395  0.14877163    -0.05000
C1421       C  0.80234235  0.44706502  0.14600397    -0.32000
C1422       C  0.79128083  0.42924703  0.13881901     0.37000
H1423       H  0.74265961  0.45169023  0.13188782     0.17400
O1424       O  0.75973185  0.48680662  0.14577610    -0.59500
H1425       H  0.81895928  0.44556623  0.15008550     0.17400
O1426       O  0.80176678  0.41037598  0.13687997    -0.59600
H1427       H  0.80899109  0.41105004  0.12294081     0.44400
H1428       H  0.76105960  0.49398788  0.13185878     0.44400
C1429       C  0.74682027  0.42422817  0.09100643    -0.04700
C1430       C  0.72726710  0.43115283  0.08304276    -0.32100
C1431       C  0.72646730  0.44528186  0.06605795     0.37100
C1432       C  0.74540464  0.45262791  0.05699362    -0.05000
C1433       C  0.76494337  0.44576285  0.06490445    -0.32000
C1434       C  0.76572813  0.43142485  0.08167766     0.37000
H1435       H  0.71267351  0.42572929  0.09019065     0.17400
O1436       O  0.70720417  0.45180691  0.05838233    -0.59500
H1437       H  0.77956020  0.45141537  0.05789761     0.17400
O1438       O  0.78500047  0.42428697  0.08865660    -0.59600
H1439       H  0.78789441  0.41141719  0.08019785     0.44400
H1440       H  0.70429768  0.46539016  0.06562609     0.44400
C1441       C  0.72833442  0.63061021  0.90777011    -0.04700
C1442       C  0.71021197  0.62123291  0.91657000    -0.32100
C1443       C  0.69976971  0.63054827  0.93389833     0.37100
C1444       C  0.70728577  0.64976469  0.94255305    -0.05000
C1445       C  0.72541773  0.65904636  0.93352535    -0.32000
C1446       C  0.73591041  0.64962171  0.91645250     0.37000
H1447       H  0.70431894  0.60649821  0.91015803     0.17400
O1448       O  0.68249086  0.62051263  0.94240518    -0.59500
H1449       H  0.73165867  0.67370996  0.93975325     0.17400
O1450       O  0.75389475  0.65895435  0.90861130    -0.57200
H1451       H  0.76581603  0.65161508  0.91574627     0.44400
H1452       H  0.67055278  0.62389441  0.93274779     0.44400
C1453       C  0.76987101  0.58007848  0.86208477    -0.04700
C1454       C  0.76355663  0.57273797  0.84208910    -0.32100
C1455       C  0.77307252  0.55510701  0.83284194     0.37100
C1456       C  0.78938778  0.54415705  0.84359128    -0.05000
C1457       C  0.79606965  0.55177827  0.86350173    -0.32000
C1458       C  0.78644972  0.56961676  0.87276994     0.37000
H1459       H  0.75092035  0.58067320  0.83358815     0.17400
O1460       O  0.76628023  0.54888833  0.81314010    -0.59500
H1461       H  0.80876880  0.54391422  0.87194941     0.17400
O1462       O  0.79380083  0.57717530  0.89180219    -0.59600
H1463       H  0.79125051  0.56577618  0.90229190     0.44400
H1464       H  0.77541187  0.55661491  0.80296685     0.44400
C1465       C  0.74745053  0.58504642  0.90695247    -0.04700
C1466       C  0.74766644  0.59159675  0.92828036    -0.32100
C1467       C  0.74469701  0.57717396  0.94482696     0.37100
C1468       C  0.74627734  0.55532737  0.94075867    -0.05000
C1469       C  0.74783951  0.54876408  0.91949605    -0.32000
C1470       C  0.74579917  0.56319887  0.90289439     0.37000
H1471       H  0.74943698  0.60801423  0.93239568     0.17400
O1472       O  0.73914011  0.58447248  0.96461687    -0.59500
H1473       H  0.74951351  0.53224405  0.91551927     0.17400
O1474       O  0.74151330  0.55560543  0.88302452    -0.59600
H1475       H  0.72590557  0.55659565  0.88150782     0.44400
H1476       H  0.74979993  0.59529867  0.96856780     0.44400
C1477       C  0.73022707  0.36959132  0.92462451    -0.04700
C1478       C  0.73739612  0.37465211  0.94512970    -0.32100
C1479       C  0.72798583  0.36552244  0.96311688     0.37100
C1480       C  0.71102695  0.35131803  0.96077680    -0.05000
C1481       C  0.70381500  0.34631148  0.94036897    -0.32000
C1482       C  0.71332936  0.35520291  0.92238083     0.37000
H1483       H  0.75063843  0.38531658  0.94721703     0.17400
O1484       O  0.73535397  0.37069216  0.98290617    -0.59500
H1485       H  0.69093254  0.33523340  0.93837882     0.17400
O1486       O  0.70604065  0.34963106  0.90266133    -0.59600
H1487       H  0.69571032  0.36077671  0.89873687     0.44400
H1488       H  0.74621854  0.35988140  0.98623730     0.44400
C1489       C  0.78815618  0.45219192  0.85385726    -0.04700
C1490       C  0.80047309  0.43625552  0.86322820    -0.32100
C1491       C  0.79085676  0.41929697  0.87370868     0.37100
C1492       C  0.76864906  0.41829833  0.87535163    -0.05000
C1493       C  0.75634177  0.43484661  0.86720317    -0.32000
C1494       C  0.76593236  0.45161343  0.85625540     0.37000
H1495       H  0.81756814  0.43643729  0.86159780     0.17400
O1496       O  0.80326445  0.40348231  0.88188244    -0.59500
H1497       H  0.73923866  0.43436514  0.86866035     0.17400
O1498       O  0.75350940  0.46746256  0.84816119    -0.59600
H1499       H  0.74803804  0.46194720  0.83450440     0.44400
H1500       H  0.80622644  0.40775645  0.89672063     0.44400
C1501       C  0.73719850  0.44906478  0.94638447    -0.04700
C1502       C  0.71985126  0.43712691  0.93944331    -0.32100
C1503       C  0.72272977  0.42098529  0.92452119     0.37100
C1504       C  0.74323053  0.41632933  0.91689635    -0.05000
C1505       C  0.76040410  0.42863804  0.92363054    -0.32000
C1506       C  0.75747564  0.44499302  0.93811501     0.37000
H1507       H  0.70418745  0.44021090  0.94575557     0.17400
O1508       O  0.70551032  0.40966428  0.91773048    -0.59500
H1509       H  0.77625010  0.42517741  0.91808455     0.17400
O1510       O  0.77458723  0.45677464  0.94443272    -0.59600
H1511       H  0.78112728  0.44867931  0.95620663     0.44400
H1512       H  0.70233150  0.41512819  0.90333515     0.44400
C1513       C  0.07963766  0.61416625  0.72535080    -0.04700
C1514       C  0.08118248  0.62087667  0.70418524    -0.32100
C1515       C  0.06433752  0.63154592  0.69434178     0.37100
C1516       C  0.04575490  0.63613454  0.70585353    -0.05000
C1517       C  0.04425148  0.62945236  0.72706417    -0.32000
C1518       C  0.06088002  0.61826262  0.73672077     0.37000
H1519       H  0.09560572  0.61797961  0.69532692     0.17400
O1520       O  0.06656025  0.63818527  0.67374586    -0.59500
H1521       H  0.03018232  0.63306061  0.73623452     0.17400
O1522       O  0.05920094  0.61255683  0.75765040    -0.59600
H1523       H  0.04914986  0.60053023  0.75785575     0.44400
H1524       H  0.07186695  0.65288559  0.67472570     0.44400
C1525       C  0.12537028  0.56383501  0.76591242    -0.04700
C1526       C  0.12784738  0.54454661  0.75524850    -0.32100
C1527       C  0.13604594  0.52680390  0.76582875     0.37100
C1528       C  0.14130032  0.52802743  0.78753801    -0.05000
C1529       C  0.13802464  0.54710117  0.79836017    -0.32000
C1530       C  0.13055101  0.56502088  0.78760424     0.37000
H1531       H  0.12398858  0.54341625  0.73853638     0.17400
O1532       O  0.13918939  0.50843286  0.75476384    -0.59500
H1533       H  0.14218502  0.54837877  0.81499043     0.17400
O1534       O  0.12815074  0.58361136  0.79847423    -0.59600
H1535       H  0.14239895  0.59019913  0.79847695     0.44400
H1536       H  0.12525215  0.50121021  0.75480580     0.44400
C1537       C  0.05037849  0.53874350  0.74227247    -0.04700
C1538       C  0.05915983  0.54624146  0.72331069    -0.32100
C1539       C  0.07533895  0.56133081  0.72377839     0.37100
C1540       C  0.08268235  0.56902977  0.74335636    -0.05000
C1541       C  0.07411298  0.56119648  0.76229151    -0.32000
C1542       C  0.05810449  0.54603140  0.76183384     0.37000
H1543       H  0.05354868  0.54027858  0.70821545     0.17400
O1544       O  0.08463105  0.56777901  0.70520232    -0.59500
H1545       H  0.07978543  0.56703856  0.77740218     0.17400
O1546       O  0.04981491  0.53864425  0.78052793    -0.59600
H1547       H  0.05801651  0.52568611  0.78378984     0.44400
H1548       H  0.07359476  0.57597065  0.69759777     0.44400
C1549       C  0.06901061  0.35462271  0.73092458    -0.04700
C1550       C  0.07040495  0.35304097  0.70876023    -0.32100
C1551       C  0.05306496  0.34605704  0.69671014     0.37100
C1552       C  0.03424404  0.33961928  0.70687164    -0.05000
C1553       C  0.03282547  0.34132062  0.72906267    -0.32000
C1554       C  0.04991174  0.34909505  0.74102573     0.37000
H1555       H  0.08498459  0.35733171  0.70077075     0.17400
O1556       O  0.05511647  0.34437693  0.67511297    -0.59500
H1557       H  0.01845767  0.33651528  0.73713925     0.17400
O1558       O  0.04794790  0.35083651  0.76261956    -0.59600
H1559       H  0.05356047  0.33739872  0.76839200     0.44400
H1560       H  0.05175990  0.35862019  0.66952522     0.44400
C1561       C  0.11882589  0.39955438  0.77274885    -0.04700
C1562       C  0.12476954  0.39888338  0.79420109    -0.32100
C1563       C  0.13443397  0.41638145  0.80387600     0.37100
C1564       C  0.13882939  0.43467874  0.79190495    -0.05000
C1565       C  0.13315217  0.43518209  0.77038171    -0.32000
C1566       C  0.12289349  0.41794294  0.76089782     0.37000
H1567       H  0.12183232  0.38477464  0.80346754     0.17400
O1568       O  0.14009935  0.41520859  0.82485764    -0.59500
H1569       H  0.13665541  0.44901708  0.76089777     0.17400
O1570       O  0.11776210  0.41880702  0.73977221    -0.59600
H1571       H  0.10493190  0.42782281  0.73899379     0.44400
H1572       H  0.15494028  0.41003459  0.82485256     0.44400
C1573       C  0.04440321  0.42994898  0.75652462    -0.04700
C1574       C  0.05352995  0.42263060  0.77538681    -0.32100
C1575       C  0.06774148  0.40567230  0.77498370     0.37100
C1576       C  0.07344360  0.39639916  0.75547316    -0.05000
C1577       C  0.06404989  0.40368964  0.73670765    -0.32000
C1578       C  0.04943009  0.42015828  0.73717087     0.37000
H1579       H  0.04956204  0.43001940  0.79036439     0.17400
O1580       O  0.07591806  0.39821599  0.79368317    -0.59500
H1581       H  0.06842840  0.39692050  0.72157681     0.17400
O1582       O  0.04008045  0.42668291  0.71863507    -0.59600
H1583       H  0.05071412  0.43584396  0.71162064     0.44400
H1584       H  0.06550672  0.38766026  0.79879406     0.44400
C1585       C  0.91555705  0.61512985  0.71530225    -0.04700
C1586       C  0.93187730  0.61944443  0.72978822    -0.32100
C1587       C  0.95018348  0.63026502  0.72332101     0.37100
C1588       C  0.95253901  0.63649166  0.70198200    -0.05000
C1589       C  0.93650710  0.63139678  0.68737480    -0.32000
C1590       C  0.91797876  0.62109337  0.69396970     0.37000
H1591       H  0.93006010  0.61508562  0.74631522     0.17400
O1592       O  0.96549129  0.63496633  0.73801662    -0.59500
H1593       H  0.93793030  0.63623526  0.67094333     0.17400
O1594       O  0.90195572  0.61762447  0.67967364    -0.59600
H1595       H  0.90715203  0.60620856  0.67025432     0.44400
H1596       H  0.97492512  0.62243806  0.73832802     0.44400
C1597       C  0.86416254  0.56905020  0.75307355    -0.04700
C1598       C  0.86280722  0.57125105  0.77514698    -0.32100
C1599       C  0.85397848  0.55524608  0.78764185     0.37100
C1600       C  0.84609684  0.53673928  0.77807108    -0.05000
C1601       C  0.84699023  0.53476300  0.75587724    -0.32000
C1602       C  0.85621766  0.55068762  0.74340776     0.37000
H1603       H  0.86861404  0.58547574  0.78270590     0.17400
O1604       O  0.85257102  0.55811675  0.80917010    -0.59500
H1605       H  0.84068155  0.52080043  0.74823847     0.17400
O1606       O  0.85668384  0.54855096  0.72176834    -0.59600
H1607       H  0.87029060  0.54135662  0.71865144     0.44400
H1608       H  0.83804040  0.56355568  0.81166746     0.44400
C1609       C  0.90805686  0.57001358  0.73142836    -0.04700
C1610       C  0.91482515  0.56113791  0.75063210    -0.32100
C1611       C  0.93056383  0.54559044  0.75084427     0.37100
C1612       C  0.93984982  0.53886176  0.73169839    -0.05000
C1613       C  0.93281275  0.54739291  0.71245162    -0.32000
C1614       C  0.91679128  0.56267400  0.71223276     0.37000
H1615       H  0.90821899  0.56661736  0.76548893     0.17400
O1616       O  0.93684053  0.53702095  0.76982310    -0.59500
H1617       H  0.93977748  0.54220585  0.69763615     0.17400
O1618       O  0.90967513  0.57031542  0.69318806    -0.59600
H1619       H  0.89701240  0.56171082  0.68974504     0.44400
H1620       H  0.94788390  0.54671037  0.77532291     0.44400
C1621       C  0.90515665  0.35776389  0.72259232    -0.04700
C1622       C  0.91458049  0.36823247  0.70537587    -0.32100
C1623       C  0.93231213  0.35958518  0.69507636     0.37100
C1624       C  0.94058107  0.33988249  0.70167609    -0.05000
C1625       C  0.93081083  0.32944292  0.71877207    -0.32000
C1626       C  0.91332799  0.33817296  0.72912656     0.37000
H1627       H  0.90842990  0.38335362  0.70020221     0.17400
O1628       O  0.94136701  0.37057159  0.67866876    -0.59500
H1629       H  0.93676109  0.31438646  0.72433388     0.17400
O1630       O  0.90500311  0.32793141  0.74640172    -0.59600
H1631       H  0.89575028  0.31675113  0.74045595     0.44400
H1632       H  0.95134253  0.38056683  0.68550323     0.44400
C1633       C  0.86009206  0.40709871  0.76571197    -0.04700
C1634       C  0.87171435  0.41640761  0.78226381    -0.32100
C1635       C  0.86418934  0.43465343  0.79255821     0.37100
C1636       C  0.84451344  0.44362780  0.78660658    -0.05000
C1637       C  0.83304626  0.43407631  0.77005472    -0.32000
C1638       C  0.84062016  0.41610676  0.75972173     0.37000
H1639       H  0.88678522  0.40969116  0.78699671     0.17400
O1640       O  0.87619735  0.44346794  0.80836216    -0.59500
H1641       H  0.81805793  0.44060659  0.76484522     0.17400
O1642       O  0.82947949  0.40820947  0.74279937    -0.59600
H1643       H  0.81742331  0.40036062  0.74910074     0.44400
H1644       H  0.88594959  0.45332972  0.80101414     0.44400
C1645       C  0.90447718  0.40220981  0.74364310    -0.04700
C1646       C  0.92572088  0.39562186  0.74492422    -0.32100
C1647       C  0.94238623  0.41010834  0.74293007     0.37100
C1648       C  0.93811755  0.43202712  0.74379363    -0.05000
C1649       C  0.91678080  0.43848541  0.74407308    -0.32000
C1650       C  0.90040686  0.42396612  0.74155210     0.37000
H1651       H  0.92960967  0.37910441  0.74660922     0.17400
O1652       O  0.96246178  0.40274880  0.73870820    -0.59500
H1653       H  0.91260942  0.45500995  0.74510959     0.17400
O1654       O  0.88069832  0.43133956  0.73625676    -0.59600
H1655       H  0.87980030  0.42988293  0.72062192     0.44400
H1656       H  0.96571983  0.39204155  0.74974276     0.44400
C1657       C  0.28129043  0.64576256  0.02859109    -0.04700
C1658       C  0.25936048  0.64875417  0.03114465    -0.32100
C1659       C  0.24883141  0.64094922  0.04898552     0.37100
C1660       C  0.26012932  0.62973247  0.06450215    -0.05000
C1661       C  0.28190890  0.62631453  0.06190866    -0.32000
C1662       C  0.29255366  0.63425481  0.04412408     0.37000
H1663       H  0.25034797  0.65749112  0.01943367     0.17400
O1664       O  0.22743007  0.64416652  0.05105438    -0.59500
H1665       H  0.29082683  0.61809856  0.07404560     0.17400
O1666       O  0.31404029  0.63135983  0.04255391    -0.59600
H1667       H  0.32041905  0.64377593  0.04969259     0.44400
H1668       H  0.22597176  0.65872335  0.05664450     0.44400
C1669       C  0.20738722  0.54721308  0.13710878    -0.04700
C1670       C  0.19380626  0.56355349  0.13070319    -0.32100
C1671       C  0.20178110  0.58141504  0.12040737     0.37100
C1672       C  0.22351312  0.58272394  0.11561022    -0.05000
C1673       C  0.23698993  0.56601568  0.12121532    -0.32000
C1674       C  0.22914228  0.54849715  0.13227839     0.37000
H1675       H  0.17705176  0.56285448  0.13442239     0.17400
O1676       O  0.18815716  0.59730216  0.11465915    -0.59500
H1677       H  0.25376117  0.56687767  0.11762996     0.17400
O1678       O  0.24274075  0.53256684  0.13795439    -0.59600
H1679       H  0.25013344  0.53774975  0.15081401     0.44400
H1680       H  0.18509991  0.60510069  0.12796130     0.44400
C1681       C  0.25589647  0.55207691  0.04432820    -0.04700
C1682       C  0.23537283  0.55998636  0.04736134    -0.32100
C1683       C  0.23162539  0.57606665  0.06204391     0.37100
C1684       C  0.24849811  0.58434218  0.07395388    -0.05000
C1685       C  0.26896218  0.57613443  0.07127612    -0.32000
C1686       C  0.27277539  0.56018188  0.05639595     0.37000
H1687       H  0.22228899  0.55377326  0.03814787     0.17400
O1688       O  0.21160136  0.58421525  0.06414788    -0.59500
H1689       H  0.28193954  0.58218602  0.08069634     0.17400
O1690       O  0.29290976  0.55241370  0.05392788    -0.59600
H1691       H  0.29908218  0.56063634  0.04205472     0.44400
H1692       H  0.20361153  0.57357154  0.07245215     0.44400
C1693       C  0.26390503  0.36737632  0.07700857    -0.04700
C1694       C  0.25458986  0.36274993  0.05735490    -0.32100
C1695       C  0.26653346  0.35316600  0.04124496     0.37100
C1696       C  0.28814521  0.34872170  0.04458657    -0.05000
C1697       C  0.29757693  0.35407237  0.06396924    -0.32000
C1698       C  0.28548844  0.36288006  0.08030290     0.37000
H1699       H  0.23795871  0.36610724  0.05471307     0.17400
O1700       O  0.25697099  0.34804599  0.02239587    -0.59500
H1701       H  0.31419272  0.35069236  0.06671713     0.17400
O1702       O  0.29503192  0.36771631  0.09923619    -0.59600
H1703       H  0.29463660  0.35446930  0.10760477     0.44400
H1704       H  0.25792773  0.36097667  0.01358862     0.44400
C1705       C  0.22351151  0.41760351  0.12218634    -0.04700
C1706       C  0.23632691  0.43556422  0.12452067    -0.32100
C1707       C  0.22837527  0.45379553  0.13428689     0.37100
C1708       C  0.20726235  0.45426222  0.14149654    -0.05000
C1709       C  0.19422606  0.43662478  0.13823114    -0.32000
C1710       C  0.20231470  0.41825970  0.12896108     0.37000
H1711       H  0.25268380  0.43522416  0.11929280     0.17400
O1712       O  0.24133099  0.47099359  0.13677157    -0.59500
H1713       H  0.17789940  0.43683280  0.14356692     0.17400
O1714       O  0.18932668  0.40111356  0.12629109    -0.59600
H1715       H  0.18925985  0.39382066  0.14020949     0.44400
H1716       H  0.23883518  0.47984163  0.12403402     0.44400
C1717       C  0.24444131  0.44368591  0.04752416    -0.04700
C1718       C  0.26327730  0.43430737  0.05451756    -0.32100
C1719       C  0.26292087  0.41856085  0.07003094     0.37100
C1720       C  0.24342806  0.41175075  0.07840728    -0.05000
C1721       C  0.22455030  0.42128614  0.07143646    -0.32000
C1722       C  0.22499669  0.43743403  0.05632655     0.37000
H1723       H  0.27835671  0.43953844  0.04817812     0.17400
O1724       O  0.28166652  0.41099306  0.07801469    -0.59500
H1725       H  0.20948778  0.41631971  0.07798173     0.17400
O1726       O  0.20644486  0.44698153  0.05026396    -0.59600
H1727       H  0.20592877  0.46039697  0.05834537     0.44400
H1728       H  0.28941988  0.40498128  0.06573019     0.44400
C1729       C  0.26825204  0.61821907  0.90120296    -0.04700
C1730       C  0.28926959  0.61502098  0.90748217    -0.32100
C1731       C  0.29794894  0.62640816  0.92440885     0.37100
C1732       C  0.28556624  0.64153792  0.93536551    -0.05000
C1733       C  0.26446968  0.64471579  0.92894005    -0.32000
C1734       C  0.25580292  0.63313297  0.91209916     0.37000
H1735       H  0.29924572  0.60411491  0.89884802     0.17400
O1736       O  0.31871934  0.62284921  0.92975239    -0.59500
H1737       H  0.25460325  0.65617933  0.93700087     0.17400
O1738       O  0.23515114  0.63660777  0.90627963    -0.59600
H1739       H  0.22668225  0.62680144  0.91514442     0.44400
H1740       H  0.32698268  0.63317609  0.92130179     0.44400
C1741       C  0.23180098  0.56310627  0.85888914    -0.04700
C1742       C  0.20962697  0.56333512  0.86018346    -0.32100
C1743       C  0.19765830  0.54583883  0.85383831     0.37100
C1744       C  0.20778506  0.52811977  0.84489082    -0.05000
C1745       C  0.23006468  0.52781454  0.84379823    -0.32000
C1746       C  0.24208157  0.54498803  0.85116465     0.37000
H1747       H  0.20154226  0.57724455  0.86606959     0.17400
O1748       O  0.17598417  0.54680485  0.85515156    -0.59500
H1749       H  0.23815030  0.51428234  0.83709953     0.17400
O1750       O  0.26374885  0.54439579  0.84964504    -0.59600
H1751       H  0.26863519  0.53807458  0.86319076     0.44400
H1752       H  0.17261689  0.54331279  0.87011181     0.44400
C1753       C  0.25792555  0.57112545  0.89918863    -0.04700
C1754       C  0.27831302  0.56367046  0.90397999    -0.32100
C1755       C  0.28162875  0.55031452  0.92137974     0.37100
C1756       C  0.26422475  0.54341130  0.93346393    -0.05000
C1757       C  0.24380166  0.55052968  0.92831255    -0.32000
C1758       C  0.24062992  0.56460094  0.91153510     0.37000
H1759       H  0.29166561  0.56844356  0.89434295     0.17400
O1760       O  0.30184524  0.54424486  0.92653716    -0.59500
H1761       H  0.23033740  0.54558209  0.93776072     0.17400
O1762       O  0.22084492  0.57286351  0.90795783    -0.59600
H1763       H  0.21156094  0.56063312  0.90480625     0.44400
H1764       H  0.30705888  0.55522218  0.93646053     0.44400
C1765       C  0.27332445  0.35772177  0.91598493    -0.04700
C1766       C  0.26479996  0.34043407  0.92684352    -0.32100
C1767       C  0.27458190  0.33239808  0.94500146     0.37100
C1768       C  0.29374544  0.34129654  0.95246394    -0.05000
C1769       C  0.30248909  0.35849700  0.94128029    -0.32000
C1770       C  0.29234337  0.36678396  0.92321922     0.37000
H1771       H  0.25009404  0.33339905  0.92146983     0.17400
O1772       O  0.26511798  0.31580910  0.95528303    -0.59500
H1773       H  0.31725406  0.36551861  0.94645997     0.17400
O1774       O  0.30134319  0.38332251  0.91243509    -0.59600
H1775       H  0.29900472  0.39589418  0.92149741     0.44400
H1776       H  0.25493469  0.32236516  0.96528794     0.44400
C1777       C  0.20552404  0.43556851  0.84824692    -0.04700
C1778       C  0.20067504  0.42932113  0.86916960    -0.32100
C1779       C  0.21154790  0.41251889  0.87893221     0.37100
C1780       C  0.22766421  0.40175526  0.86783456    -0.05000
C1781       C  0.23214024  0.40767318  0.84690411    -0.32000
C1782       C  0.22151795  0.42442570  0.83720425     0.37000
H1783       H  0.18842915  0.43745049  0.87801279     0.17400
O1784       O  0.20638613  0.40686950  0.89928873    -0.59500
H1785       H  0.24443773  0.39955032  0.83810565     0.17400
O1786       O  0.22677472  0.42944640  0.81670125    -0.59600
H1787       H  0.23925416  0.43889316  0.81786538     0.44400
H1788       H  0.19613855  0.39510956  0.89780192     0.44400
C1789       C  0.25440786  0.43629941  0.94065098    -0.04700
C1790       C  0.25222690  0.44002672  0.91875819    -0.32100
C1791       C  0.25405639  0.42362281  0.90414662     0.37100
C1792       C  0.25291295  0.40247323  0.91102264    -0.05000
C1793       C  0.25346976  0.39858703  0.93298233    -0.32000
C1794       C  0.25622299  0.41509880  0.94751589     0.37000
H1795       H  0.25019249  0.45585856  0.91267402     0.17400
O1796       O  0.25770950  0.42862988  0.88332123    -0.59500
H1797       H  0.25246620  0.38271772  0.93910386     0.17400
O1798       O  0.26188385  0.41040124  0.96805754    -0.59600
H1799       H  0.25108629  0.40038049  0.97349428     0.44400
H1800       H  0.27285142  0.42524888  0.88083187     0.44400
C1801       C  0.65404849  0.29349841  0.05992132    -0.04700
C1802       C  0.66277075  0.27495087  0.06860453    -0.32100
C1803       C  0.65365574  0.26519464  0.08640322     0.37100
C1804       C  0.63548367  0.27391820  0.09605566    -0.05000
C1805       C  0.62716615  0.29278982  0.08793687    -0.32000
C1806       C  0.63608232  0.30243131  0.06996485     0.37000
H1807       H  0.67661113  0.26776150  0.06144912     0.17400
O1808       O  0.66240232  0.24684839  0.09397021    -0.59500
H1809       H  0.61336242  0.29983960  0.09530180     0.17400
O1810       O  0.62720510  0.32078181  0.06261286    -0.59600
H1811       H  0.61559535  0.31624160  0.05304172     0.44400
H1812       H  0.65556680  0.23540016  0.08571990     0.44400
C1813       C  0.54749175  0.21068329  0.15684119    -0.04700
C1814       C  0.55677962  0.22690095  0.16897082    -0.32100
C1815       C  0.57403353  0.23858066  0.16130653     0.37100
C1816       C  0.58244788  0.23444751  0.14102957    -0.05000
C1817       C  0.57312535  0.21853740  0.12866088    -0.32000
C1818       C  0.55585631  0.20670348  0.13636935     0.37000
H1819       H  0.55083495  0.23047830  0.18468237     0.17400
O1820       O  0.58253780  0.25415269  0.17378824    -0.59500
H1821       H  0.57950115  0.21501914  0.11310247     0.17400
O1822       O  0.54768214  0.19097860  0.12389346    -0.59600
H1823       H  0.53672628  0.19795635  0.11504730     0.44400
H1824       H  0.57492223  0.26722917  0.16968362     0.44400
C1825       C  0.58779746  0.25981721  0.09841843    -0.04700
C1826       C  0.59326529  0.25905083  0.07682528    -0.32100
C1827       C  0.57803763  0.26198590  0.06095469     0.37100
C1828       C  0.55628443  0.26116452  0.06616653    -0.05000
C1829       C  0.55076805  0.26247152  0.08779382    -0.32000
C1830       C  0.56638077  0.26358098  0.10364220     0.37000
H1831       H  0.60939141  0.25623850  0.07192973     0.17400
O1832       O  0.58443611  0.26606681  0.04046965    -0.59500
H1833       H  0.53436849  0.26248449  0.09271197     0.17400
O1834       O  0.56076867  0.26928326  0.12391128    -0.59600
H1835       H  0.54872110  0.26009697  0.12804469     0.44400
H1836       H  0.59562295  0.25563056  0.03692902     0.44400
C1837       C  0.37002547  0.27500208  0.09332213    -0.04700
C1838       C  0.35050972  0.26749435  0.08590968    -0.32100
C1839       C  0.34154270  0.27527468  0.06718204     0.37100
C1840       C  0.35187269  0.29133737  0.05547407    -0.05000
C1841       C  0.37110229  0.29946572  0.06343451    -0.32000
C1842       C  0.38010684  0.29150766  0.08223882     0.37000
H1843       H  0.34246968  0.25490843  0.09433027     0.17400
O1844       O  0.32246901  0.26714339  0.06071022    -0.59500
H1845       H  0.37929435  0.31192666  0.05500471     0.17400
O1846       O  0.39899752  0.29956292  0.08929862    -0.59600
H1847       H  0.39513586  0.30978135  0.10056230     0.44400
H1848       H  0.32605679  0.25403485  0.05289293     0.44400
C1849       C  0.41775747  0.23260960  0.14089107    -0.04700
C1850       C  0.42780057  0.23958916  0.15941180    -0.32100
C1851       C  0.44534396  0.22887070  0.16768921     0.37100
C1852       C  0.45319560  0.21057651  0.15748734    -0.05000
C1853       C  0.44275553  0.20337804  0.13909685    -0.32000
C1854       C  0.42518435  0.21424349  0.13080508     0.37000
H1855       H  0.42222567  0.25372361  0.16732052     0.17400
O1856       O  0.45484526  0.23673037  0.18558772    -0.59500
H1857       H  0.44804922  0.18915192  0.13118436     0.17400
O1858       O  0.41487543  0.20640720  0.11333754    -0.59600
H1859       H  0.42458089  0.20890431  0.10121856     0.44400
H1860       H  0.44665860  0.23077065  0.19761097     0.44400
C1861       C  0.44758615  0.25541247  0.06516211    -0.04700
C1862       C  0.42600817  0.25608175  0.05961683    -0.32100
C1863       C  0.41019262  0.25261975  0.07476107     0.37100
C1864       C  0.41514959  0.25405890  0.09647945    -0.05000
C1865       C  0.43662283  0.25562743  0.10225913    -0.32000
C1866       C  0.45273657  0.25446242  0.08700449     0.37000
H1867       H  0.42124601  0.25769476  0.04322063     0.17400
O1868       O  0.39055121  0.24576863  0.06831207    -0.59500
H1869       H  0.44116436  0.25694766  0.11871821     0.17400
O1870       O  0.47317736  0.25091453  0.09363267    -0.59600
H1871       H  0.47686253  0.26285428  0.10312070     0.44400
H1872       H  0.38625634  0.25471767  0.05612048     0.44400
C1873       C  0.63630638  0.25882607  0.93518503    -0.04700
C1874       C  0.63832405  0.28058771  0.93174150    -0.32100
C1875       C  0.64665819  0.29378181  0.94751427     0.37100
C1876       C  0.65380601  0.28509818  0.96681058    -0.05000
C1877       C  0.65187636  0.26325446  0.97018748    -0.32000
C1878       C  0.64277903  0.25019593  0.95467695     0.37000
H1879       H  0.63338960  0.28736971  0.91674236     0.17400
O1880       O  0.64823461  0.31506303  0.94377020    -0.59500
H1881       H  0.65734269  0.25633574  0.98492898     0.17400
O1882       O  0.64119165  0.22891220  0.95829102    -0.59600
H1883       H  0.62787305  0.22710989  0.96643083     0.44400
H1884       H  0.65892942  0.31654636  0.93234740     0.44400
C1885       C  0.58893682  0.21768480  0.88812706    -0.04700
C1886       C  0.57432024  0.23182741  0.87929977    -0.32100
C1887       C  0.55695387  0.22442798  0.86766347     0.37100
C1888       C  0.55372061  0.20254344  0.86527124    -0.05000
C1889       C  0.56785291  0.18841597  0.87508608    -0.32000
C1890       C  0.58553793  0.19587638  0.88624885     0.37000
H1891       H  0.57684868  0.24868199  0.88076027     0.17400
O1892       O  0.54322783  0.23869574  0.85874077    -0.59500
H1893       H  0.56576499  0.17154059  0.87325592     0.17400
O1894       O  0.59995919  0.18181630  0.89436501    -0.59600
H1895       H  0.59288588  0.17530637  0.90679581     0.44400
H1896       H  0.55023493  0.24344303  0.84549469     0.44400
C1897       C  0.59331393  0.23535250  0.93269264    -0.04700
C1898       C  0.58615579  0.21610411  0.94108624    -0.32100
C1899       C  0.56929600  0.21558586  0.95549180     0.37100
C1900       C  0.55974847  0.23454277  0.96194332    -0.05000
C1901       C  0.56688111  0.25376492  0.95356332    -0.32000
C1902       C  0.58348458  0.25426086  0.93888430     0.37000
H1903       H  0.59357044  0.20148478  0.93622551     0.17400
O1904       O  0.56215525  0.19657083  0.96303382    -0.59500
H1905       H  0.55917794  0.26838285  0.95807292     0.17400
O1906       O  0.58904970  0.27301127  0.92953599    -0.59600
H1907       H  0.59421285  0.28213674  0.94122342     0.44400
H1908       H  0.55058879  0.19239567  0.95325305     0.44400
C1909       C  0.37600777  0.26368628  0.92490843    -0.04700
C1910       C  0.37037639  0.28503052  0.92324255    -0.32100
C1911       C  0.36133281  0.29564772  0.94046498     0.37100
C1912       C  0.35740447  0.28479284  0.95957886    -0.05000
C1913       C  0.36259679  0.26332243  0.96110579    -0.32000
C1914       C  0.37219756  0.25282721  0.94402045     0.37000
H1915       H  0.37312559  0.29350879  0.90856072     0.17400
O1916       O  0.35576565  0.31647519  0.93825184    -0.59500
H1917       H  0.35921886  0.25469569  0.97556104     0.17400
O1918       O  0.37677898  0.23172305  0.94569990    -0.59600
H1919       H  0.38858122  0.23078243  0.95606261     0.44400
H1920       H  0.34088997  0.31629703  0.93315916     0.44400
C1921       C  0.42639153  0.22490297  0.87815503    -0.04700
C1922       C  0.44343407  0.23743041  0.87150156    -0.32100
C1923       C  0.46100416  0.22831747  0.86145752     0.37100
C1924       C  0.46175987  0.20631305  0.85811825    -0.05000
C1925       C  0.44494200  0.19374319  0.86547149    -0.32000
C1926       C  0.42725798  0.20292907  0.87529325     0.37000
H1927       H  0.44284433  0.25439248  0.87361883     0.17400
O1928       O  0.47724850  0.24109380  0.85482081    -0.59500
H1929       H  0.44518236  0.17682233  0.86299558     0.17400
O1930       O  0.41056196  0.19045643  0.88140887    -0.59600
H1931       H  0.41578870  0.18221952  0.89373130     0.44400
H1932       H  0.48827948  0.23986500  0.86596286     0.44400
C1933       C  0.44881982  0.23886879  0.95695274    -0.04700
C1934       C  0.44097756  0.25861033  0.95069656    -0.32100
C1935       C  0.42669139  0.26027611  0.93384510     0.37100
C1936       C  0.41972036  0.24195683  0.92329124    -0.05000
C1937       C  0.42743760  0.22219530  0.92976419    -0.32000
C1938       C  0.44196614  0.22057024  0.94645831     0.37000
H1939       H  0.44647370  0.27281436  0.95852738     0.17400
O1940       O  0.42003932  0.27989210  0.92750959    -0.59500
H1941       H  0.42202983  0.20801176  0.92193822     0.17400
O1942       O  0.44980344  0.20116930  0.95207096    -0.59600
H1943       H  0.43900616  0.19501102  0.96167681     0.44400
H1944       H  0.42880123  0.28337754  0.91492964     0.44400
C1945       C  0.63811194  0.08090884  0.73310402    -0.04700
C1946       C  0.65849262  0.07343228  0.73786798    -0.32100
C1947       C  0.66767916  0.05704281  0.72616018     0.37100
C1948       C  0.65633977  0.04750629  0.70937945    -0.05000
C1949       C  0.63587147  0.05501860  0.70468917    -0.32000
C1950       C  0.62679495  0.07161353  0.71629210     0.37000
H1951       H  0.66756642  0.08068514  0.75050932     0.17400
O1952       O  0.68793037  0.05085795  0.73105608    -0.59500
H1953       H  0.62694119  0.04834928  0.69163939     0.17400
O1954       O  0.60768614  0.07977256  0.70991669    -0.59600
H1955       H  0.59726165  0.06822114  0.71185221     0.44400
H1956       H  0.69726464  0.06022726  0.72259316     0.44400
C1957       C  0.59195168  0.13259545  0.77170742    -0.04700
C1958       C  0.58185843  0.12160998  0.78815450    -0.32100
C1959       C  0.56479106  0.13052267  0.79914024     0.37100
C1960       C  0.55756824  0.15102735  0.79395564    -0.05000
C1961       C  0.56792428  0.16210576  0.77762125    -0.32000
C1962       C  0.58502442  0.15313463  0.76666135     0.37000
H1963       H  0.58739620  0.10610295  0.79278730     0.17400
O1964       O  0.55562439  0.11910492  0.81518566    -0.59500
H1965       H  0.56282988  0.17785566  0.77328030     0.17400
O1966       O  0.59438091  0.16430217  0.75052884    -0.59600
H1967       H  0.60308238  0.17525446  0.75762585     0.44400
H1968       H  0.54508994  0.10987536  0.80810060     0.44400
C1969       C  0.56051377  0.05775762  0.75636100    -0.04700
C1970       C  0.57956661  0.05410545  0.76738569    -0.32100
C1971       C  0.59635144  0.06856360  0.76620163     0.37100
C1972       C  0.59399356  0.08726316  0.75443104    -0.05000
C1973       C  0.57479102  0.09128715  0.74403376    -0.32000
C1974       C  0.55823354  0.07659508  0.74464910     0.37000
H1975       H  0.58153102  0.03981996  0.77664042     0.17400
O1976       O  0.61472688  0.06471687  0.77715832    -0.59500
H1977       H  0.57293915  0.10564699  0.73488983     0.17400
O1978       O  0.54032784  0.08020412  0.73282843    -0.59600
H1979       H  0.53300104  0.09216648  0.73984517     0.44400
H1980       H  0.62253763  0.05417995  0.76854617     0.44400
C1981       C  0.35163451  0.05855956  0.71261400    -0.04700
C1982       C  0.37139338  0.06448003  0.70405990    -0.32100
C1983       C  0.38345145  0.08068579  0.71324976     0.37100
C1984       C  0.37567180  0.09152693  0.73106832    -0.05000
C1985       C  0.35626253  0.08543745  0.73992520    -0.32000
C1986       C  0.34442635  0.06893875  0.73111769     0.37000
H1987       H  0.37745564  0.05676629  0.68998048     0.17400
O1988       O  0.40210102  0.08675794  0.70387611    -0.59500
H1989       H  0.35016909  0.09365644  0.75371046     0.17400
O1990       O  0.32552262  0.06363007  0.74041889    -0.59600
H1991       H  0.32917317  0.05285260  0.75123587     0.44400
H1992       H  0.41217190  0.07503776  0.70658411     0.44400
C1993       C  0.42949720  0.13854357  0.76478848    -0.04700
C1994       C  0.44042329  0.15632988  0.75726297    -0.32100
C1995       C  0.45790296  0.16447034  0.76835222     0.37100
C1996       C  0.46483540  0.15462198  0.78724899    -0.05000
C1997       C  0.45393241  0.13667416  0.79448580    -0.32000
C1998       C  0.43633455  0.12878087  0.78362560     0.37000
H1999       H  0.43521649  0.16409054  0.74285083     0.17400
O2000       O  0.46793575  0.18205346  0.76059574    -0.59500
H2001       H  0.45848255  0.12905931  0.80918861     0.17400
O2002       O  0.42476787  0.11273825  0.79257559    -0.59600
H2003       H  0.43482766  0.10086769  0.79464839     0.44400
H2004       H  0.45939990  0.19417518  0.76571099     0.44400
C2005       C  0.42102552  0.09350630  0.74951973    -0.04700
C2006       C  0.44018682  0.09470571  0.73839026    -0.32100
C2007       C  0.45529825  0.07871342  0.74021929     0.37100
C2008       C  0.45158311  0.06154046  0.75387563    -0.05000
C2009       C  0.43245660  0.06047421  0.76524586    -0.32000
C2010       C  0.41696586  0.07608375  0.76270558     0.37000
H2011       H  0.44321537  0.10800320  0.72802239     0.17400
O2012       O  0.47320439  0.07944245  0.72789088    -0.59500
H2013       H  0.42942725  0.04731303  0.77580504     0.17400
O2014       O  0.39849243  0.07493758  0.77410649    -0.59600
H2015       H  0.39008715  0.06362147  0.76724373     0.44400
H2016       H  0.48252168  0.09006072  0.73470239     0.44400
C2017       C  0.65251255  0.95598768  0.70769158    -0.04700
C2018       C  0.63539985  0.94484885  0.69870950    -0.32100
C2019       C  0.62574817  0.92802409  0.70955985     0.37100
C2020       C  0.63312192  0.92201166  0.72972780    -0.05000
C2021       C  0.65000537  0.93313188  0.73885260    -0.32000
C2022       C  0.65954604  0.95008172  0.72816184     0.37000
H2023       H  0.62979753  0.94878883  0.68295167     0.17400
O2024       O  0.61006741  0.91664585  0.69975450    -0.59500
H2025       H  0.65586239  0.92859474  0.75435993     0.17400
O2026       O  0.67589958  0.96056252  0.73784916    -0.59600
H2027       H  0.66909130  0.97223348  0.74581346     0.44400
H2028       H  0.59725867  0.92569188  0.70043528     0.44400
C2029       C  0.58269546  0.87161003  0.76472256    -0.04700
C2030       C  0.57000913  0.88282781  0.77921044    -0.32100
C2031       C  0.55183378  0.87361099  0.78821630     0.37100
C2032       C  0.54604090  0.85277396  0.78282962    -0.05000
C2033       C  0.55875892  0.84163815  0.76835064    -0.32000
C2034       C  0.57681802  0.85081479  0.75937252     0.37000
H2035       H  0.57433450  0.89866588  0.78392644     0.17400
O2036       O  0.53955403  0.88533217  0.80176253    -0.59500
H2037       H  0.55482966  0.82555314  0.76405646     0.17400
O2038       O  0.58856179  0.83923894  0.74524061    -0.59600
H2039       H  0.58350031  0.84365805  0.73102296     0.44400
H2040       H  0.54704313  0.88491591  0.81558807     0.44400
C2041       C  0.58829055  0.91729506  0.74796685    -0.04700
C2042       C  0.56965524  0.91486942  0.73616053    -0.32100
C2043       C  0.55405249  0.93056087  0.73643465     0.37100
C2044       C  0.55669765  0.94859819  0.74929680    -0.05000
C2045       C  0.57526356  0.95068186  0.76142366    -0.32000
C2046       C  0.59109017  0.93533100  0.76059388     0.37000
H2047       H  0.56745081  0.90092207  0.72648627     0.17400
O2048       O  0.53634393  0.92816381  0.72405280    -0.59500
H2049       H  0.57750942  0.96434477  0.77150591     0.17400
O2050       O  0.60917326  0.93793405  0.77236931    -0.59600
H2051       H  0.60739242  0.92862072  0.78489295     0.44400
H2052       H  0.53919469  0.93653171  0.71106643     0.44400
C2053       C  0.36651638  0.93204950  0.73594689    -0.04700
C2054       C  0.37734128  0.94232701  0.71949945    -0.32100
C2055       C  0.36848050  0.95994453  0.70943261     0.37100
C2056       C  0.34848886  0.96764853  0.71592009    -0.05000
C2057       C  0.33808704  0.95767799  0.73292893    -0.32000
C2058       C  0.34690100  0.94001637  0.74282609     0.37000
H2059       H  0.39232328  0.93621519  0.71381796     0.17400
O2060       O  0.37948461  0.96938049  0.69323570    -0.59500
H2061       H  0.32273012  0.96318330  0.73825898     0.17400
O2062       O  0.33599640  0.93040207  0.75898575    -0.59600
H2063       H  0.34255226  0.93578683  0.77221796     0.44400
H2064       H  0.37630011  0.96081957  0.68046448     0.44400
C2065       C  0.45197566  0.85761605  0.78176794    -0.04700
C2066       C  0.44062236  0.84884013  0.76473377    -0.32100
C2067       C  0.42279039  0.85892204  0.75646805     0.37100
C2068       C  0.41594608  0.87816963  0.76512945    -0.05000
C2069       C  0.42751930  0.88735448  0.78173534    -0.32000
C2070       C  0.44541645  0.87726061  0.79009042     0.37000
H2071       H  0.44523454  0.83378691  0.75803045     0.17400
O2072       O  0.41208137  0.84972569  0.73995408    -0.59500
H2073       H  0.42237598  0.90212729  0.78866335     0.17400
O2074       O  0.45636765  0.88680350  0.80625612    -0.59600
H2075       H  0.44816235  0.88365576  0.81930150     0.44400
H2076       H  0.41802266  0.85629717  0.72697281     0.44400
C2077       C  0.41206250  0.92414721  0.75159858    -0.04700
C2078       C  0.42884786  0.92165858  0.73728388    -0.32100
C2079       C  0.44584175  0.93582304  0.73725660     0.37100
C2080       C  0.44625686  0.95257787  0.75189700    -0.05000
C2081       C  0.42947631  0.95491121  0.76637888    -0.32000
C2082       C  0.41236249  0.94087902  0.76617792     0.37000
H2083       H  0.42857511  0.90877984  0.72599807     0.17400
O2084       O  0.46156385  0.93370912  0.72238049    -0.59500
H2085       H  0.42966890  0.96769269  0.77779157     0.17400
O2086       O  0.39643760  0.94302962  0.78081239    -0.59600
H2087       H  0.38618534  0.95297128  0.77429140     0.44400
H2088       H  0.47033441  0.92166875  0.72729987     0.44400
C2089       C  0.62365202  0.73253797  0.06951876    -0.04700
C2090       C  0.64242133  0.74116748  0.06139370    -0.32100
C2091       C  0.65307529  0.73159487  0.04441956     0.37100
C2092       C  0.64499560  0.71291621  0.03518954    -0.05000
C2093       C  0.62598727  0.70448755  0.04329005    -0.32000
C2094       C  0.61534953  0.71413459  0.06025467     0.37000
H2095       H  0.64907776  0.75524253  0.06852295     0.17400
O2096       O  0.67153207  0.74053297  0.03727279    -0.59500
H2097       H  0.61949306  0.69004775  0.03679937     0.17400
O2098       O  0.59777638  0.70456236  0.06870978    -0.59600
H2099       H  0.58659619  0.70590363  0.05773396     0.44400
H2100       H  0.68277452  0.73489911  0.04670128     0.44400
C2101       C  0.57228937  0.76240465  0.12193562    -0.04700
C2102       C  0.56125894  0.77891388  0.11204596    -0.32100
C2103       C  0.54328518  0.78779809  0.12151678     0.37100
C2104       C  0.53606811  0.78023547  0.14135066    -0.05000
C2105       C  0.54699395  0.76343896  0.15100397    -0.32000
C2106       C  0.56505608  0.75471438  0.14158178     0.37000
H2107       H  0.56684349  0.78529058  0.09711515     0.17400
O2108       O  0.53322005  0.80412848  0.11137792    -0.59500
H2109       H  0.54184097  0.75726918  0.16618206     0.17400
O2110       O  0.57527254  0.73831296  0.15146716    -0.59600
H2111       H  0.58341126  0.74487309  0.16320458     0.44400
H2112       H  0.52239430  0.79733409  0.10224869     0.44400
C2113       C  0.57773407  0.74862547  0.07540278    -0.04700
C2114       C  0.58093694  0.76144089  0.05757787    -0.32100
C2115       C  0.56530406  0.76324830  0.04195620     0.37100
C2116       C  0.54638272  0.75147480  0.04360901    -0.05000
C2117       C  0.54328762  0.73857177  0.06151097    -0.32000
C2118       C  0.55865877  0.73735781  0.07746893     0.37000
H2119       H  0.59547878  0.77038893  0.05606028     0.17400
O2120       O  0.56874469  0.77645314  0.02504977    -0.59500
H2121       H  0.52894237  0.72930978  0.06305870     0.17400
O2122       O  0.55503908  0.72499008  0.09495328    -0.59600
H2123       H  0.55957009  0.71059836  0.09078683     0.44400
H2124       H  0.56052031  0.78939608  0.02824523     0.44400
C2125       C  0.33887385  0.71040542  0.02896568    -0.04700
C2126       C  0.35524335  0.70039374  0.04034513    -0.32100
C2127       C  0.36470858  0.71005449  0.05786182     0.37100
C2128       C  0.35787727  0.73007832  0.06442638    -0.05000
C2129       C  0.34162252  0.74027776  0.05320740    -0.32000
C2130       C  0.33214205  0.73063682  0.03552980     0.37000
H2131       H  0.36051662  0.68470671  0.03600412     0.17400
O2132       O  0.37966980  0.69923159  0.06934034    -0.59500
H2133       H  0.33625486  0.75574068  0.05820679     0.17400
O2134       O  0.31660779  0.74126133  0.02468027    -0.59600
H2135       H  0.30334476  0.73842525  0.03262446     0.44400
H2136       H  0.39216898  0.69804481  0.05987350     0.44400
C2137       C  0.40930003  0.75987923  0.11632027    -0.04700
C2138       C  0.41750192  0.75014071  0.13447636    -0.32100
C2139       C  0.43481158  0.75881727  0.14525961     0.37100
C2140       C  0.44385454  0.77806963  0.13832727    -0.05000
C2141       C  0.43603331  0.78734076  0.11958188    -0.32000
C2142       C  0.41893683  0.77838143  0.10861321     0.37000
H2143       H  0.41029174  0.73579663  0.14044600     0.17400
O2144       O  0.44221746  0.74861600  0.16296186    -0.59500
H2145       H  0.44277117  0.80192534  0.11367586     0.17400
O2146       O  0.41125091  0.78834379  0.09088961    -0.59600
H2147       H  0.39890520  0.79666033  0.09585738     0.44400
H2148       H  0.45378002  0.73935111  0.15776626     0.44400
C2149       C  0.43649758  0.74649531  0.04028306    -0.04700
C2150       C  0.43772476  0.73212289  0.05718729    -0.32100
C2151       C  0.42163915  0.73130116  0.07245613     0.37100
C2152       C  0.40384807  0.74450635  0.07050571    -0.05000
C2153       C  0.40235954  0.75846500  0.05335293    -0.32000
C2154       C  0.41867609  0.75974457  0.03842897     0.37000
H2155       H  0.45126507  0.72169326  0.05860849     0.17400
O2156       O  0.42302224  0.71715921  0.08887739    -0.59500
H2157       H  0.38881014  0.76888525  0.05202827     0.17400
O2158       O  0.41759919  0.77462541  0.02264339    -0.59600
H2159       H  0.40770921  0.76873960  0.01195231     0.44400
H2160       H  0.43403695  0.72290993  0.09849049     0.44400
C2161       C  0.62283760  0.72548708  0.90564581    -0.04700
C2162       C  0.64169173  0.73457235  0.91288450    -0.32100
C2163       C  0.65204897  0.72663508  0.93081388     0.37100
C2164       C  0.64358167  0.70912461  0.94190612    -0.05000
C2165       C  0.62442704  0.70025194  0.93467679    -0.32000
C2166       C  0.61413709  0.70825472  0.91666773     0.37000
H2167       H  0.64852822  0.74784295  0.90446027     0.17400
O2168       O  0.67058239  0.73604023  0.93711356    -0.59500
H2169       H  0.61760299  0.68674446  0.94269368     0.17400
O2170       O  0.59602374  0.69862943  0.90953962    -0.59600
H2171       H  0.60084012  0.68832873  0.89873422     0.44400
H2172       H  0.68173124  0.72976735  0.92801055     0.44400
C2173       C  0.57290152  0.75918049  0.85462261    -0.04700
C2174       C  0.56485985  0.77660177  0.86569862    -0.32100
C2175       C  0.54859231  0.78892639  0.85720053     0.37100
C2176       C  0.54007644  0.78403951  0.83707116    -0.05000
C2177       C  0.54807242  0.76644502  0.82605012    -0.32000
C2178       C  0.56433986  0.75410436  0.83465588     0.37000
H2179       H  0.57170169  0.78125824  0.88070950     0.17400
O2180       O  0.54136766  0.80582713  0.86871064    -0.59500
H2181       H  0.54194216  0.76233838  0.81053965     0.17400
O2182       O  0.57195586  0.73728369  0.82328254    -0.59600
H2183       H  0.56241492  0.72535607  0.82681604     0.44400
H2184       H  0.55115871  0.81757396  0.86524725     0.44400
C2185       C  0.57811170  0.74399931  0.90064373    -0.04700
C2186       C  0.55915442  0.73256461  0.89994051    -0.32100
C2187       C  0.54379892  0.73516829  0.91574824     0.37100
C2188       C  0.54719641  0.74970410  0.93235733    -0.05000
C2189       C  0.56611544  0.76134332  0.93284274    -0.32000
C2190       C  0.58162653  0.75838240  0.91723328     0.37000
H2191       H  0.55642763  0.72144780  0.88718304     0.17400
O2192       O  0.52586079  0.72292396  0.91532552    -0.59500
H2193       H  0.56883808  0.77272169  0.94537234     0.17400
O2194       O  0.59969960  0.77037682  0.91757855    -0.59600
H2195       H  0.60849114  0.76436058  0.92914274     0.44400
H2196       H  0.51722916  0.72846048  0.90340546     0.44400
C2197       C  0.36238558  0.73015910  0.90217301    -0.04700
C2198       C  0.34218269  0.73665520  0.90867084    -0.32100
C2199       C  0.33192704  0.72678545  0.92565749     0.37100
C2200       C  0.34178517  0.70976685  0.93633773    -0.05000
C2201       C  0.36216637  0.70347686  0.92989743    -0.32000
C2202       C  0.37235590  0.71336298  0.91288631     0.37000
H2203       H  0.33427402  0.74947944  0.90048295     0.17400
O2204       O  0.31200196  0.73351671  0.93113740    -0.59500
H2205       H  0.37011268  0.69046835  0.93772607     0.17400
O2206       O  0.39168160  0.70587322  0.90641239    -0.59600
H2207       H  0.38863972  0.69676866  0.89399629     0.44400
H2208       H  0.31428233  0.74588456  0.94050562     0.44400
C2209       C  0.41383618  0.76692644  0.85424025    -0.04700
C2210       C  0.42151896  0.76101100  0.83423298    -0.32100
C2211       C  0.43871346  0.77147961  0.82493518     0.37100
C2212       C  0.44859047  0.78848329  0.83558256    -0.05000
C2213       C  0.44087329  0.79433180  0.85567312    -0.32000
C2214       C  0.42366946  0.78378116  0.86499039     0.37000
H2215       H  0.41402973  0.74821559  0.82564349     0.17400
O2216       O  0.44522053  0.76528899  0.80513484    -0.59500
H2217       H  0.44790113  0.80745769  0.86412758     0.17400
O2218       O  0.41558214  0.79115167  0.88378292    -0.59600
H2219       H  0.42718834  0.78967218  0.89430378     0.44400
H2220       H  0.45513978  0.75340269  0.80763103     0.44400
C2221       C  0.40752161  0.74855123  0.89931033    -0.04700
C2222       C  0.42673013  0.73793009  0.89616293    -0.32100
C2223       C  0.44226072  0.73772450  0.91199913     0.37100
C2224       C  0.43889827  0.74891241  0.93103614    -0.05000
C2225       C  0.41955137  0.75944618  0.93416151    -0.32000
C2226       C  0.40372559  0.75892030  0.91864194     0.37000
H2227       H  0.42946135  0.72949095  0.88147739     0.17400
O2228       O  0.46031424  0.72595149  0.90914205    -0.59500
H2229       H  0.41673472  0.76811975  0.94870259     0.17400
O2230       O  0.38507798  0.76956197  0.92192020    -0.59600
H2231       H  0.37740432  0.76133725  0.93288269     0.44400
H2232       H  0.46793070  0.73258963  0.89710490     0.44400
C2233       C  0.62971703  0.06151036  0.25595171    -0.04700
C2234       C  0.61976611  0.05171961  0.27323175    -0.32100
C2235       C  0.62914392  0.03445028  0.28347570     0.37100
C2236       C  0.64894316  0.02661322  0.27650906    -0.05000
C2237       C  0.65846125  0.03600973  0.25864978    -0.32000
C2238       C  0.64899990  0.05323513  0.24840860     0.37000
H2239       H  0.60503801  0.05796261  0.27941794     0.17400
O2240       O  0.61878891  0.02548254  0.30034981    -0.59500
H2241       H  0.67353329  0.03028547  0.25276825     0.17400
O2242       O  0.65889899  0.06207627  0.23118685    -0.59600
H2243       H  0.65412454  0.05363123  0.21885338     0.44400
H2244       H  0.62212345  0.03463820  0.31265828     0.44400
C2245       C  0.57942428  0.11623917  0.22849701    -0.04700
C2246       C  0.57406659  0.13592541  0.23706885    -0.32100
C2247       C  0.55740952  0.14784312  0.22862817     0.37100
C2248       C  0.54561249  0.14011141  0.21121361    -0.05000
C2249       C  0.55076715  0.12013678  0.20292680    -0.32000
C2250       C  0.56759070  0.10832121  0.21131096     0.37000
H2251       H  0.58316041  0.14230895  0.25016215     0.17400
O2252       O  0.55325301  0.16728758  0.23723878    -0.59500
H2253       H  0.54205851  0.11382134  0.18955212     0.17400
O2254       O  0.57290897  0.08955195  0.20189421    -0.59600
H2255       H  0.58502108  0.09287142  0.19246254     0.44400
H2256       H  0.56245902  0.17724961  0.22938032     0.44400
C2257       C  0.55069765  0.03948065  0.24568039    -0.04700
C2258       C  0.54990797  0.05770621  0.25832813    -0.32100
C2259       C  0.56592583  0.07292888  0.25707823     0.37100
C2260       C  0.58324331  0.06977014  0.24342885    -0.05000
C2261       C  0.58420881  0.05148743  0.23098616    -0.32000
C2262       C  0.56799728  0.03646203  0.23187377     0.37000
H2263       H  0.53681928  0.06010800  0.26919042     0.17400
O2264       O  0.56510906  0.09036981  0.26992412    -0.59500
H2265       H  0.59746739  0.04908884  0.22034349     0.17400
O2266       O  0.56875821  0.01924926  0.21868872    -0.59600
H2267       H  0.58008260  0.01006275  0.22451499     0.44400
H2268       H  0.55373866  0.09938208  0.26391540     0.44400
C2269       C  0.36402266  0.06982323  0.25770640    -0.04700
C2270       C  0.37428261  0.06007274  0.27484225    -0.32100
C2271       C  0.36473516  0.04346437  0.28591320     0.37100
C2272       C  0.34431386  0.03635654  0.28010399    -0.05000
C2273       C  0.33422959  0.04588866  0.26263631    -0.32000
C2274       C  0.34391010  0.06243991  0.25150542     0.37000
H2275       H  0.38949428  0.06578238  0.28026049     0.17400
O2276       O  0.37559453  0.03437301  0.30241168    -0.59500
H2277       H  0.31858889  0.04078990  0.25775534     0.17400
O2278       O  0.33344702  0.07146876  0.23472507    -0.59600
H2279       H  0.33728658  0.06273376  0.22224459     0.44400
H2280       H  0.37302855  0.04371955  0.31476679     0.44400
C2281       C  0.41762333  0.11987394  0.22744637    -0.04700
C2282       C  0.42398774  0.13923795  0.23608984    -0.32100
C2283       C  0.44152439  0.15015302  0.22803912     0.37100
C2284       C  0.45318892  0.14183223  0.21079602    -0.05000
C2285       C  0.44697329  0.12220571  0.20237032    -0.32000
C2286       C  0.42944908  0.11119336  0.21062223     0.37000
H2287       H  0.41500922  0.14619089  0.24897197     0.17400
O2288       O  0.44670745  0.16922793  0.23690184    -0.59500
H2289       H  0.45547701  0.11548070  0.18906380     0.17400
O2290       O  0.42308136  0.09280753  0.20108856    -0.59600
H2291       H  0.43450516  0.08244879  0.20405289     0.44400
H2292       H  0.43830047  0.17983129  0.22892302     0.44400
C2293       C  0.44041707  0.04180930  0.24891415    -0.04700
C2294       C  0.42408862  0.03968989  0.23397083    -0.32100
C2295       C  0.40894615  0.05558697  0.23148974     0.37100
C2296       C  0.41035200  0.07411170  0.24362159    -0.05000
C2297       C  0.42653808  0.07625163  0.25868130    -0.32000
C2298       C  0.44139983  0.06008942  0.26159734     0.37000
H2299       H  0.42329221  0.02578809  0.22399796     0.17400
O2300       O  0.39335683  0.05342126  0.21649874    -0.59500
H2301       H  0.42727031  0.09027235  0.26847353     0.17400
O2302       O  0.45648226  0.06196394  0.27716893    -0.59600
H2303       H  0.46684908  0.07238472  0.27170970     0.44400
H2304       H  0.38273830  0.04382216  0.22295275     0.44400
C2305       C  0.62432651  0.90080540  0.26035240    -0.04700
C2306       C  0.64154743  0.90976015  0.24961037    -0.32100
C2307       C  0.65261872  0.92687950  0.25828194     0.37100
C2308       C  0.64669079  0.93510255  0.27827002    -0.05000
C2309       C  0.62918301  0.92613681  0.28879636    -0.32000
C2310       C  0.61799715  0.90920748  0.27995005     0.37000
H2311       H  0.64641606  0.90343948  0.23439968     0.17400
O2312       O  0.66902242  0.93551309  0.24695019    -0.59500
H2313       H  0.62431596  0.93194039  0.30420432     0.17400
O2314       O  0.60175385  0.90010246  0.29116748    -0.59600
H2315       H  0.59039517  0.91090608  0.29171550     0.44400
H2316       H  0.68135257  0.92618612  0.24969954     0.44400
C2317       C  0.56996978  0.85397941  0.22806970    -0.04700
C2318       C  0.55661532  0.83991742  0.23877766    -0.32100
C2319       C  0.53878131  0.83136429  0.22864829     0.37100
C2320       C  0.53411722  0.83689352  0.20741429    -0.05000
C2321       C  0.54740780  0.85137026  0.19696006    -0.32000
C2322       C  0.56518783  0.85987943  0.20713604     0.37000
H2323       H  0.56017375  0.83537311  0.25496779     0.17400
O2324       O  0.52589917  0.81786692  0.23975068    -0.59500
H2325       H  0.54443512  0.85563128  0.18058070     0.17400
O2326       O  0.57851243  0.87299695  0.19610328    -0.59600
H2327       H  0.57121263  0.88685506  0.19575536     0.44400
H2328       H  0.53340934  0.80411172  0.23974535     0.44400
C2329       C  0.54763928  0.93063743  0.24733877    -0.04700
C2330       C  0.56474304  0.93195540  0.23314908    -0.32100
C2331       C  0.58007025  0.91598312  0.23245394     0.37100
C2332       C  0.57804260  0.89822287  0.24563552    -0.05000
C2333       C  0.56106592  0.89692987  0.25987981    -0.32000
C2334       C  0.54606899  0.91315093  0.26103774     0.37000
H2335       H  0.56610677  0.94534108  0.22252880     0.17400
O2336       O  0.59649065  0.91734997  0.21827583    -0.59500
H2337       H  0.55973356  0.88343984  0.27035668     0.17400
O2338       O  0.53031169  0.91217570  0.27600612    -0.59600
H2339       H  0.51998824  0.90174210  0.27052023     0.44400
H2340       H  0.60626957  0.92803473  0.22429120     0.44400
C2341       C  0.36040857  0.90941491  0.26334792    -0.04700
C2342       C  0.37157365  0.91934368  0.27982086    -0.32100
C2343       C  0.36310877  0.93707081  0.29015823     0.37100
C2344       C  0.34302128  0.94500323  0.28417848    -0.05000
C2345       C  0.33231445  0.93531752  0.26720220    -0.32000
C2346       C  0.34077234  0.91769406  0.25693990     0.37000
H2347       H  0.38667631  0.91306982  0.28502899     0.17400
O2348       O  0.37445199  0.94618193  0.30628746    -0.59500
H2349       H  0.31705660  0.94116614  0.26195841     0.17400
O2350       O  0.32994290  0.90894800  0.24023148    -0.59600
H2351       H  0.31796754  0.90118438  0.24667810     0.44400
H2352       H  0.38386605  0.95657679  0.29924933     0.44400
C2353       C  0.40739977  0.85728325  0.22684225    -0.04700
C2354       C  0.41389865  0.83703329  0.23300175    -0.32100
C2355       C  0.43065527  0.82683950  0.22268499     0.37100
C2356       C  0.44119590  0.83683923  0.20563742    -0.05000
C2357       C  0.43441655  0.85707066  0.19934669    -0.32000
C2358       C  0.41756644  0.86716000  0.20962089     0.37000
H2359       H  0.40595546  0.82906654  0.24597462     0.17400
O2360       O  0.43611482  0.80686819  0.22906996    -0.59500
H2361       H  0.44196210  0.86505050  0.18615688     0.17400
O2362       O  0.41072347  0.88631181  0.20215016    -0.59600
H2363       H  0.39856003  0.88304529  0.19274481     0.44400
H2364       H  0.44556825  0.80889209  0.24147456     0.44400
C2365       C  0.40519695  0.90250854  0.24546818    -0.04700
C2366       C  0.40253867  0.92166589  0.23466339    -0.32100
C2367       C  0.41871371  0.93675990  0.23445326     0.37100
C2368       C  0.43763282  0.93312564  0.24585657    -0.05000
C2369       C  0.44002472  0.91403214  0.25697352    -0.32000
C2370       C  0.42413391  0.89864284  0.25651416     0.37000
H2371       H  0.38797086  0.92468663  0.22609056     0.17400
O2372       O  0.41583462  0.95504433  0.22314208    -0.59500
H2373       H  0.45428296  0.91105972  0.26607798     0.17400
O2374       O  0.42674639  0.88027059  0.26771129    -0.59600
H2375       H  0.43710508  0.87181638  0.25937406     0.44400
H2376       H  0.42282480  0.95254483  0.20932930     0.44400
C2377       C  0.26272485  0.08891185  0.62849473    -0.04700
C2378       C  0.25402097  0.08049006  0.64708307    -0.32100
C2379       C  0.26436964  0.06438079  0.65817530     0.37100
C2380       C  0.28412045  0.05665627  0.65093805    -0.05000
C2381       C  0.29263310  0.06499840  0.63207940    -0.32000
C2382       C  0.28209498  0.08098506  0.62087077     0.37000
H2383       H  0.23909491  0.08650237  0.65307368     0.17400
O2384       O  0.25518496  0.05672250  0.67632857    -0.59500
H2385       H  0.30780158  0.05952749  0.62620393     0.17400
O2386       O  0.29161877  0.08989809  0.60346203    -0.59600
H2387       H  0.29271555  0.07842823  0.59281780     0.44400
H2388       H  0.24541589  0.04544405  0.67150269     0.44400
C2389       C  0.22817374  0.13486239  0.57431884    -0.04700
C2390       C  0.23558258  0.15414368  0.56641692    -0.32100
C2391       C  0.22626261  0.16347733  0.54862606     0.37100
C2392       C  0.20905013  0.15349862  0.53835422    -0.05000
C2393       C  0.20191599  0.13394478  0.54613048    -0.32000
C2394       C  0.21133676  0.12460537  0.56395190     0.37000
H2395       H  0.24848317  0.16221980  0.57434430     0.17400
O2396       O  0.23396555  0.18252089  0.54171858    -0.59500
H2397       H  0.18862251  0.12602789  0.53872858     0.17400
O2398       O  0.20289794  0.10636269  0.57207442    -0.59600
H2399       H  0.20485866  0.09553855  0.56087897     0.44400
H2400       H  0.22629902  0.19330101  0.55016039     0.44400
C2401       C  0.24725692  0.09077163  0.58232941    -0.04700
C2402       C  0.26041196  0.09263083  0.56452202    -0.32100
C2403       C  0.26156812  0.07626301  0.54962051     0.37100
C2404       C  0.24878338  0.05818220  0.55210168    -0.05000
C2405       C  0.23559502  0.05647758  0.56994013    -0.32000
C2406       C  0.23511191  0.07243898  0.58520283     0.37000
H2407       H  0.27005670  0.10662035  0.56247175     0.17400
O2408       O  0.27565247  0.07767460  0.53308465    -0.59500
H2409       H  0.22557559  0.04273931  0.57196563     0.17400
O2410       O  0.22173200  0.07069010  0.60225131    -0.59600
H2411       H  0.22854205  0.06028538  0.61183490     0.44400
H2412       H  0.26991610  0.08875075  0.52356495     0.44400
C2413       C  0.26376027  0.07553323  0.36442554    -0.04700
C2414       C  0.25627025  0.06830313  0.34480310    -0.32100
C2415       C  0.26549509  0.05083464  0.33483263     0.37100
C2416       C  0.28261878  0.04011001  0.34452962    -0.05000
C2417       C  0.28979554  0.04717039  0.36442701    -0.32000
C2418       C  0.28067112  0.06479496  0.37425058     0.37000
H2419       H  0.24340707  0.07652242  0.33694287     0.17400
O2420       O  0.25784944  0.04474009  0.31540919    -0.59500
H2421       H  0.30293383  0.03935231  0.37222190     0.17400
O2422       O  0.28915409  0.07193693  0.39292575    -0.59600
H2423       H  0.29929873  0.08315712  0.38879277     0.44400
H2424       H  0.26604008  0.05306677  0.30490889     0.44400
C2425       C  0.21126573  0.15071818  0.44643235    -0.04700
C2426       C  0.20243893  0.13235741  0.43748918    -0.32100
C2427       C  0.21260820  0.12167988  0.42096895     0.37100
C2428       C  0.23203895  0.12915170  0.41310193    -0.05000
C2429       C  0.24116328  0.14719024  0.42214393    -0.32000
C2430       C  0.23106642  0.15788360  0.43878887     0.37000
H2431       H  0.18728778  0.12643719  0.44294413     0.17400
O2432       O  0.20301119  0.10437569  0.41213134    -0.59500
H2433       H  0.25619436  0.15301440  0.41624237     0.17400
O2434       O  0.24085068  0.17512317  0.44755981    -0.59600
H2435       H  0.23752544  0.18703561  0.43791038     0.44400
H2436       H  0.19472468  0.10992850  0.39998666     0.44400
C2437       C  0.24698807  0.08316594  0.40996538    -0.04700
C2438       C  0.23374141  0.06553000  0.40801497    -0.32100
C2439       C  0.23267647  0.05047292  0.42427993     0.37100
C2440       C  0.24547454  0.05272937  0.44247462    -0.05000
C2441       C  0.25886752  0.07033659  0.44420513    -0.32000
C2442       C  0.25933020  0.08570725  0.42831621     0.37000
H2443       H  0.22397280  0.06370593  0.39400688     0.17400
O2444       O  0.21861664  0.03402847  0.42267337    -0.59500
H2445       H  0.26895702  0.07218563  0.45799040     0.17400
O2446       O  0.27269752  0.10265665  0.43025088    -0.59600
H2447       H  0.26620964  0.11177643  0.44126097     0.44400
H2448       H  0.22433609  0.02474309  0.41137935     0.44400
C2449       C  0.26501108  0.92923622  0.63839096    -0.04700
C2450       C  0.25679338  0.93844542  0.65686042    -0.32100
C2451       C  0.26639533  0.95621240  0.66596305     0.37100
C2452       C  0.28463738  0.96517994  0.65654157    -0.05000
C2453       C  0.29278431  0.95583044  0.63800188    -0.32000
C2454       C  0.28318059  0.93802361  0.62896968     0.37000
H2455       H  0.24293448  0.93167931  0.66439913     0.17400
O2456       O  0.25785013  0.96448229  0.68415628    -0.59500
H2457       H  0.30700358  0.96200250  0.63064391     0.17400
O2458       O  0.29259842  0.92836637  0.61191891    -0.59600
H2459       H  0.29203840  0.93881524  0.60021019     0.44400
H2460       H  0.26431432  0.95628229  0.69589737     0.44400
C2461       C  0.23292503  0.87584048  0.58972577    -0.04700
C2462       C  0.21650403  0.88571564  0.57843637    -0.32100
C2463       C  0.20705669  0.87583872  0.56092546     0.37100
C2464       C  0.21389809  0.85558668  0.55448652    -0.05000
C2465       C  0.23078551  0.84606384  0.56554673    -0.32000
C2466       C  0.24019387  0.85597501  0.58298739     0.37000
H2467       H  0.21056603  0.90092786  0.58352798     0.17400
O2468       O  0.19076161  0.88591663  0.55068731    -0.59500
H2469       H  0.23647784  0.83057644  0.56102604     0.17400
O2470       O  0.25637754  0.84596735  0.59348447    -0.59600
H2471       H  0.26956870  0.85178678  0.58724902     0.44400
H2472       H  0.19768317  0.89492550  0.53985915     0.44400
C2473       C  0.24901714  0.92116490  0.59272905    -0.04700
C2474       C  0.26129667  0.91699496  0.57469497    -0.32100
C2475       C  0.26150221  0.93110986  0.55765790     0.37100
C2476       C  0.24869042  0.94933868  0.55823099    -0.05000
C2477       C  0.23612118  0.95325603  0.57620683    -0.32000
C2478       C  0.23633653  0.93935715  0.59343351     0.37000
H2479       H  0.27099483  0.90289855  0.57408139     0.17400
O2480       O  0.27427086  0.92697983  0.54054846    -0.59500
H2481       H  0.22611283  0.96714296  0.57683320     0.17400
O2482       O  0.22382195  0.94340246  0.61073544    -0.59600
H2483       H  0.21000302  0.93668769  0.60748753     0.44400
H2484       H  0.28749844  0.93497863  0.54324439     0.44400
C2485       C  0.28228703  0.94876958  0.34947060    -0.04700
C2486       C  0.26591906  0.93715973  0.33985955    -0.32100
C2487       C  0.25624157  0.92033376  0.35043726     0.37100
C2488       C  0.26278321  0.91475774  0.37104198    -0.05000
C2489       C  0.27851875  0.92680272  0.38104991    -0.32000
C2490       C  0.28826686  0.94366832  0.37047649     0.37000
H2491       H  0.26089434  0.94075585  0.32382637     0.17400
O2492       O  0.24056539  0.90922793  0.34032277    -0.59500
H2493       H  0.28389994  0.92268531  0.39682590     0.17400
O2494       O  0.30356889  0.95503172  0.38088326    -0.59600
H2495       H  0.31664740  0.94642241  0.37979972     0.44400
H2496       H  0.22709129  0.91517556  0.34578207     0.44400
C2497       C  0.21409784  0.84696856  0.46135176    -0.04700
C2498       C  0.20576474  0.86549790  0.45227501    -0.32100
C2499       C  0.21474855  0.87436882  0.43409219     0.37100
C2500       C  0.23284171  0.86518991  0.42491192    -0.05000
C2501       C  0.24134105  0.84678979  0.43388537    -0.32000
C2502       C  0.23212014  0.83761200  0.45189745     0.37000
H2503       H  0.19180467  0.87293124  0.45892018     0.17400
O2504       O  0.20508249  0.89146441  0.42490868    -0.59500
H2505       H  0.25509878  0.83939190  0.42676936     0.17400
O2506       O  0.24080725  0.81944813  0.45993750    -0.59600
H2507       H  0.23416596  0.80783499  0.45176152     0.44400
H2508       H  0.19564954  0.88551860  0.41384598     0.44400
C2509       C  0.24749533  0.91079682  0.41745353    -0.04700
C2510       C  0.26070119  0.90947189  0.43526841    -0.32100
C2511       C  0.26072917  0.92551943  0.45053961     0.37100
C2512       C  0.24713564  0.94304312  0.44819444    -0.05000
C2513       C  0.23373319  0.94415171  0.43043027    -0.32000
C2514       C  0.23404660  0.92829329  0.41499552     0.37000
H2515       H  0.27121138  0.89607432  0.43710562     0.17400
O2516       O  0.27459574  0.92438471  0.46728190    -0.59500
H2517       H  0.22302519  0.95739418  0.42854065     0.17400
O2518       O  0.22043701  0.92940298  0.39807420    -0.59600
H2519       H  0.22690122  0.93975675  0.38819485     0.44400
H2520       H  0.26925515  0.91280556  0.47642012     0.44400
C2521       C  0.07976109  0.73713669  0.64202041    -0.04700
C2522       C  0.07225391  0.72031227  0.62970387    -0.32100
C2523       C  0.05593326  0.70719924  0.63715061     0.37100
C2524       C  0.04662372  0.71083934  0.65729490    -0.05000
C2525       C  0.05432388  0.72769259  0.66957890    -0.32000
C2526       C  0.07070551  0.74066681  0.66215632     0.37000
H2527       H  0.07926229  0.71713899  0.61434282     0.17400
O2528       O  0.04931031  0.69086714  0.62452623    -0.59500
H2529       H  0.04766952  0.73088709  0.68508771     0.17400
O2530       O  0.07769156  0.75690405  0.67472016    -0.59600
H2531       H  0.06918392  0.76934351  0.67035716     0.44400
H2532       H  0.05854016  0.67878554  0.62838466     0.44400
C2533       C  0.13022582  0.77875497  0.59646342    -0.04700
C2534       C  0.14983944  0.77048376  0.59010892    -0.32100
C2535       C  0.16070094  0.77873439  0.57264780     0.37100
C2536       C  0.15186014  0.79550547  0.56079220    -0.05000
C2537       C  0.13243803  0.80421044  0.56758820    -0.32000
C2538       C  0.12168702  0.79603033  0.58532535     0.37000
H2539       H  0.15673311  0.75731759  0.59865791     0.17400
O2540       O  0.17993046  0.77011869  0.56735372    -0.59500
H2541       H  0.12551173  0.81744000  0.55918704     0.17400
O2542       O  0.10320438  0.80531148  0.59203336    -0.59600
H2543       H  0.09276830  0.80287554  0.58052864     0.44400
H2544       H  0.19049530  0.77806606  0.57582200     0.44400
C2545       C  0.08430061  0.75940681  0.59755029    -0.04700
C2546       C  0.09116679  0.75756039  0.57640868    -0.32100
C2547       C  0.07675143  0.75797344  0.55951764     0.37100
C2548       C  0.05484697  0.75605463  0.56357716    -0.05000
C2549       C  0.04791683  0.75780998  0.58474457    -0.32000
C2550       C  0.06230061  0.76119726  0.60127304     0.37000
H2551       H  0.10777713  0.75609144  0.57267512     0.17400
O2552       O  0.08404341  0.76109186  0.53917267    -0.59500
H2553       H  0.03125906  0.75674795  0.58866359     0.17400
O2554       O  0.05455146  0.76625528  0.62093053    -0.59600
H2555       H  0.05669266  0.78169664  0.62232968     0.44400
H2556       H  0.09586087  0.75099702  0.53693613     0.44400
C2557       C  0.05680378  0.69864317  0.36548124    -0.04700
C2558       C  0.07572475  0.68700814  0.36600294    -0.32100
C2559       C  0.09366404  0.69494501  0.37640576     0.37100
C2560       C  0.09256704  0.71438976  0.38710713    -0.05000
C2561       C  0.07337140  0.72561170  0.38727195    -0.32000
C2562       C  0.05559477  0.71792486  0.37643535     0.37000
H2563       H  0.07685119  0.67215439  0.35755559     0.17400
O2564       O  0.11213741  0.68353461  0.37620668    -0.59500
H2565       H  0.07235371  0.74072698  0.39523170     0.17400
O2566       O  0.03722764  0.72949247  0.37633768    -0.59600
H2567       H  0.03053039  0.72666839  0.39028897     0.44400
H2568       H  0.11888804  0.68682292  0.36239091     0.44400
C2569       C  0.13666363  0.75758185  0.43574774    -0.04700
C2570       C  0.13788922  0.77949064  0.43266866    -0.32100
C2571       C  0.14532977  0.79279017  0.44880775     0.37100
C2572       C  0.15243443  0.78413539  0.46813757    -0.05000
C2573       C  0.15091919  0.76221190  0.47129268    -0.32000
C2574       C  0.14272193  0.74900881  0.45540642     0.37000
H2575       H  0.13327572  0.78627424  0.41757172     0.17400
O2576       O  0.14700642  0.81403053  0.44496045    -0.59500
H2577       H  0.15633801  0.75527827  0.48604605     0.17400
O2578       O  0.14190579  0.72763806  0.45875157    -0.59600
H2579       H  0.12860278  0.72523852  0.46676997     0.44400
H2580       H  0.13298823  0.81998114  0.44879431     0.44400
C2581       C  0.06196449  0.72642483  0.46084660    -0.04700
C2582       C  0.07175074  0.70821995  0.45298426    -0.32100
C2583       C  0.08888985  0.70989173  0.43894234     0.37100
C2584       C  0.09628404  0.72995471  0.43270671    -0.05000
C2585       C  0.08671245  0.74809423  0.44101192    -0.32000
C2586       C  0.06974062  0.74642422  0.45509721     0.37000
H2587       H  0.06600751  0.69278002  0.45762306     0.17400
O2588       O  0.09868945  0.69195145  0.43170205    -0.59500
H2589       H  0.09203186  0.76357120  0.43605380     0.17400
O2590       O  0.06033832  0.76442941  0.46266024    -0.59600
H2591       H  0.06799859  0.76775400  0.47598625     0.44400
H2592       H  0.08812690  0.68481572  0.42252654     0.44400
C2593       C  0.92050374  0.73532842  0.63951659    -0.04700
C2594       C  0.93040471  0.74108080  0.65857901    -0.32100
C2595       C  0.94689004  0.72888995  0.66710729     0.37100
C2596       C  0.95405773  0.71060554  0.65638163    -0.05000
C2597       C  0.94384186  0.70476374  0.63741351    -0.32000
C2598       C  0.92702543  0.71672202  0.62920788     0.37000
H2599       H  0.92544203  0.75524063  0.66684100     0.17400
O2600       O  0.95604206  0.73527323  0.68576834    -0.59500
H2601       H  0.94861907  0.69062161  0.62903869     0.17400
O2602       O  0.91694536  0.70994717  0.61118629    -0.59600
H2603       H  0.90428725  0.70216708  0.61626687     0.44400
H2604       H  0.94693044  0.72932434  0.69710989     0.44400
C2605       C  0.87312586  0.77643168  0.59059163    -0.04700
C2606       C  0.88375219  0.79235036  0.57938212    -0.32100
C2607       C  0.87514842  0.80072584  0.56061046     0.37100
C2608       C  0.85563400  0.79303513  0.55266410    -0.05000
C2609       C  0.84516063  0.77702246  0.56403956    -0.32000
C2610       C  0.85368283  0.76882864  0.58280178     0.37000
H2611       H  0.89885592  0.79815276  0.58510454     0.17400
O2612       O  0.88625388  0.81599758  0.54993102    -0.59500
H2613       H  0.83020545  0.77076152  0.55843466     0.17400
O2614       O  0.84325825  0.75278082  0.59303443    -0.59600
H2615       H  0.84892113  0.73959532  0.58671504     0.44400
H2616       H  0.88292421  0.82937701  0.55737738     0.44400
C2617       C  0.94803026  0.75007058  0.56119176    -0.04700
C2618       C  0.92628054  0.75041602  0.55635102    -0.32100
C2619       C  0.91105441  0.74990091  0.57240928     0.37100
C2620       C  0.91696479  0.75371580  0.59364883    -0.05000
C2621       C  0.93865661  0.75496540  0.59840275    -0.32000
C2622       C  0.95402039  0.75140346  0.58280598     0.37000
H2623       H  0.92087991  0.74992351  0.54007539     0.17400
O2624       O  0.89072047  0.74451658  0.56713425    -0.59500
H2625       H  0.94387588  0.75778507  0.61448364     0.17400
O2626       O  0.97457382  0.74773400  0.58903112    -0.59600
H2627       H  0.97903778  0.76033487  0.59723480     0.44400
H2628       H  0.88971512  0.72914459  0.56991663     0.44400
C2629       C  0.92812747  0.72156813  0.37880054    -0.04700
C2630       C  0.94866737  0.72888126  0.38324893    -0.32100
C2631       C  0.96638847  0.71880230  0.37455264     0.37100
C2632       C  0.96368195  0.70121926  0.36124739    -0.05000
C2633       C  0.94327178  0.69332325  0.35755431    -0.32000
C2634       C  0.92552894  0.70342429  0.36619461     0.37000
H2635       H  0.95095224  0.74284990  0.39287789     0.17400
O2636       O  0.98624370  0.72656120  0.37867307    -0.59500
H2637       H  0.94104816  0.67981357  0.34725533     0.17400
O2638       O  0.90568931  0.69573106  0.36184576    -0.59600
H2639       H  0.90154516  0.68761877  0.37465792     0.44400
H2640       H  0.99176037  0.71769758  0.39041325     0.44400
C2641       C  0.88063312  0.76424457  0.42498862    -0.04700
C2642       C  0.88018504  0.78636175  0.42494435    -0.32100
C2643       C  0.87081456  0.79748845  0.44168892     0.37100
C2644       C  0.86140035  0.78644021  0.45868669    -0.05000
C2645       C  0.86206133  0.76426129  0.45874929    -0.32000
C2646       C  0.87185761  0.75317553  0.44219467     0.37000
H2647       H  0.88690803  0.79501632  0.41172765     0.17400
O2648       O  0.87015680  0.81911325  0.44080393    -0.59500
H2649       H  0.85474057  0.75548169  0.47155422     0.17400
O2650       O  0.87166131  0.73152973  0.44231569    -0.59600
H2651       H  0.88299975  0.72735469  0.45237992     0.44400
H2652       H  0.85647870  0.82255335  0.43385606     0.44400
C2653       C  0.95045256  0.72779704  0.45595188    -0.04700
C2654       C  0.94065402  0.71092387  0.44554490    -0.32100
C2655       C  0.92540584  0.71482135  0.42991481     0.37100
C2656       C  0.92014520  0.73575649  0.42443206    -0.05000
C2657       C  0.92954611  0.75254225  0.43535997    -0.32000
C2658       C  0.94465213  0.74866847  0.45101865     0.37000
H2659       H  0.94503443  0.69483025  0.44936379     0.17400
O2660       O  0.91606713  0.69813862  0.41971704    -0.59500
H2661       H  0.92574366  0.76867294  0.43113661     0.17400
O2662       O  0.95400341  0.76536765  0.46122568    -0.59600
H2663       H  0.96681970  0.76869897  0.45276512     0.44400
H2664       H  0.90179181  0.69683012  0.42615659     0.44400
C2665       C  0.71116544  0.04693612  0.63919479    -0.04700
C2666       C  0.69947340  0.06503007  0.63384116    -0.32100
C2667       C  0.70909783  0.08202715  0.62334982     0.37100
C2668       C  0.73058628  0.08088041  0.61741381    -0.05000
C2669       C  0.74219587  0.06261669  0.62230058    -0.32000
C2670       C  0.73272618  0.04584832  0.63339101     0.37000
H2671       H  0.68295007  0.06624510  0.63836612     0.17400
O2672       O  0.69741126  0.09980337  0.61915364    -0.59500
H2673       H  0.75880053  0.06161159  0.61803520     0.17400
O2674       O  0.74468400  0.02851064  0.63853176    -0.59600
H2675       H  0.74323323  0.01882585  0.62626010     0.44400
H2676       H  0.69160346  0.09765204  0.60469542     0.44400
C2677       C  0.76968312  0.12585710  0.56557777    -0.04700
C2678       C  0.79150403  0.12286066  0.56266272    -0.32100
C2679       C  0.80158874  0.12997706  0.54415497     0.37100
C2680       C  0.78979530  0.14047686  0.52828556    -0.05000
C2681       C  0.76788225  0.14329100  0.53130572    -0.32000
C2682       C  0.75787024  0.13611200  0.54975808     0.37000
H2683       H  0.80082487  0.11531362  0.57494447     0.17400
O2684       O  0.82305377  0.12721755  0.54213269    -0.59500
H2685       H  0.75847462  0.15136425  0.51942616     0.17400
O2686       O  0.73649409  0.13918564  0.55220374    -0.59600
H2687       H  0.73513185  0.15312266  0.55922400     0.44400
H2688       H  0.82948450  0.14005217  0.54842360     0.44400
C2689       C  0.75688395  0.05092021  0.54190626    -0.04700
C2690       C  0.73684131  0.05824829  0.54808142    -0.32100
C2691       C  0.73494865  0.07375291  0.56375898     0.37100
C2692       C  0.75322099  0.08171456  0.57370483    -0.05000
C2693       C  0.77319173  0.07406521  0.56775206    -0.32000
C2694       C  0.77512853  0.05886883  0.55183098     0.37000
H2695       H  0.72270410  0.05197693  0.54064018     0.17400
O2696       O  0.71527351  0.08124757  0.56906852    -0.59500
H2697       H  0.78729286  0.07995846  0.57548985     0.17400
O2698       O  0.79486149  0.05191768  0.54596605    -0.59600
H2699       H  0.79851853  0.04071490  0.55633324     0.44400
H2700       H  0.71248477  0.09293048  0.55897020     0.44400
C2701       C  0.71224708  0.02693489  0.33780351    -0.04700
C2702       C  0.70027092  0.04407068  0.34524517    -0.32100
C2703       C  0.71020746  0.06203667  0.35345493     0.37100
C2704       C  0.73241453  0.06274204  0.35522579    -0.05000
C2705       C  0.74444388  0.04533313  0.34855857    -0.32000
C2706       C  0.73451658  0.02759034  0.33961920     0.37000
H2707       H  0.68314467  0.04386487  0.34395990     0.17400
O2708       O  0.69806663  0.07873734  0.36009799    -0.59500
H2709       H  0.76156831  0.04576668  0.34974066     0.17400
O2710       O  0.74669708  0.01107038  0.33262164    -0.59600
H2711       H  0.74686742  0.00082564  0.34451470     0.44400
H2712       H  0.69504956  0.08702267  0.34709213     0.44400
C2713       C  0.77118388  0.11442170  0.40042550    -0.04700
C2714       C  0.75959108  0.11905236  0.41882546    -0.32100
C2715       C  0.76922891  0.12947922  0.43590052     0.37100
C2716       C  0.79083588  0.13501645  0.43482559    -0.05000
C2717       C  0.80258426  0.12960370  0.41672110    -0.32000
C2718       C  0.79278998  0.11970506  0.39943740     0.37000
H2719       H  0.74294389  0.11495298  0.41974466     0.17400
O2720       O  0.75738992  0.13430690  0.45349730    -0.59500
H2721       H  0.81919785  0.13379307  0.41565968     0.17400
O2722       O  0.80448361  0.11507595  0.38170410    -0.59600
H2723       H  0.80250259  0.12732846  0.37210951     0.44400
H2724       H  0.76054460  0.12298103  0.46387384     0.44400
C2725       C  0.75750137  0.06851481  0.39722234    -0.04700
C2726       C  0.77816610  0.06454794  0.40453408    -0.32100
C2727       C  0.78170064  0.05077577  0.42156163     0.37100
C2728       C  0.76443753  0.04058543  0.43115205    -0.05000
C2729       C  0.74387570  0.04415290  0.42354892    -0.32000
C2730       C  0.74029435  0.05832603  0.40699638     0.37000
H2731       H  0.79149435  0.07252594  0.39728085     0.17400
O2732       O  0.80182304  0.04807741  0.42934356    -0.59500
H2733       H  0.73047366  0.03656489  0.43113122     0.17400
O2734       O  0.71987429  0.06295235  0.40125376    -0.59600
H2735       H  0.71556230  0.07478488  0.41059828     0.44400
H2736       H  0.80921395  0.03913176  0.41877163     0.44400
C2737       C  0.72305878  0.91677576  0.62107623    -0.04700
C2738       C  0.73435752  0.93586754  0.61995219    -0.32100
C2739       C  0.72610829  0.95434047  0.62897569     0.37100
C2740       C  0.70621916  0.95389800  0.63901107    -0.05000
C2741       C  0.69464627  0.93503621  0.63954748    -0.32000
C2742       C  0.70308298  0.91646887  0.63098411     0.37000
H2743       H  0.74987125  0.93633352  0.61261468     0.17400
O2744       O  0.73769186  0.97263382  0.62820075    -0.59500
H2745       H  0.67935548  0.93452577  0.64736673     0.17400
O2746       O  0.69156227  0.89815060  0.63206988    -0.59600
H2747       H  0.69370557  0.89280081  0.64670455     0.44400
H2748       H  0.73343038  0.97958850  0.61476086     0.44400
C2749       C  0.76383451  0.86732440  0.57526316    -0.04700
C2750       C  0.78588774  0.86989041  0.57576638    -0.32100
C2751       C  0.79871353  0.86122960  0.55983883     0.37100
C2752       C  0.78952409  0.84921871  0.54340434    -0.05000
C2753       C  0.76739066  0.84656716  0.54306493    -0.32000
C2754       C  0.75456390  0.85570482  0.55872328     0.37000
H2755       H  0.79319924  0.87847966  0.58869860     0.17400
O2756       O  0.82028869  0.86342335  0.56127640    -0.59500
H2757       H  0.76001972  0.83727742  0.53066989     0.17400
O2758       O  0.73308356  0.85247877  0.55820594    -0.59600
H2759       H  0.72718381  0.86509109  0.55098227     0.44400
H2760       H  0.82338433  0.87754143  0.55523157     0.44400
C2761       C  0.74366185  0.94261780  0.54593942    -0.04700
C2762       C  0.72403585  0.93543928  0.55342101    -0.32100
C2763       C  0.72313476  0.91940065  0.56869425     0.37100
C2764       C  0.74203835  0.91071055  0.57678525    -0.05000
C2765       C  0.76157393  0.91825823  0.56955042    -0.32000
C2766       C  0.76248660  0.93390858  0.55407005     0.37000
H2767       H  0.70947038  0.94220587  0.54735734     0.17400
O2768       O  0.70383131  0.91186086  0.57524240    -0.59500
H2769       H  0.77615846  0.91229131  0.57626231     0.17400
O2770       O  0.78187687  0.94104107  0.54733570    -0.59600
H2771       H  0.78495154  0.93295673  0.53422317     0.44400
H2772       H  0.69720648  0.92355023  0.58333299     0.44400
C2773       C  0.73332733  0.90165402  0.36144543    -0.04700
C2774       C  0.74092924  0.90929883  0.34200486    -0.32100
C2775       C  0.73039661  0.92542934  0.33111513     0.37100
C2776       C  0.71159261  0.93427970  0.33949498    -0.05000
C2777       C  0.70373275  0.92624357  0.35882051    -0.32000
C2778       C  0.71443894  0.91007183  0.36976735     0.37000
H2779       H  0.75535641  0.90285274  0.33528751     0.17400
O2780       O  0.73857519  0.93212008  0.31210593    -0.59500
H2781       H  0.68918649  0.93242549  0.36549616     0.17400
O2782       O  0.70598597  0.90206393  0.38814531    -0.59600
H2783       H  0.70689422  0.91363988  0.39869105     0.44400
H2784       H  0.74895240  0.94327602  0.31582168     0.44400
C2785       C  0.77549586  0.85812623  0.41343731    -0.04700
C2786       C  0.79201844  0.86976987  0.42261467    -0.32100
C2787       C  0.80236950  0.86243598  0.44095320     0.37100
C2788       C  0.79630303  0.84304477  0.45037221    -0.05000
C2789       C  0.77992899  0.83136911  0.44080742    -0.32000
C2790       C  0.76967519  0.83868528  0.42256360     0.37000
H2791       H  0.79679544  0.88465170  0.41562531     0.17400
O2792       O  0.81851656  0.87427454  0.44931290    -0.59500
H2793       H  0.77494542  0.81641038  0.44746665     0.17400
O2794       O  0.75359109  0.82687326  0.41400095    -0.59600
H2795       H  0.74035012  0.83309261  0.41972884     0.44400
H2796       H  0.81147124  0.88481872  0.45855543     0.44400
C2797       C  0.75191378  0.90165910  0.40801031    -0.04700
C2798       C  0.75198346  0.92286503  0.40138271    -0.32100
C2799       C  0.74989060  0.93941968  0.41596438     0.37100
C2800       C  0.75225148  0.93542621  0.43788377    -0.05000
C2801       C  0.75274077  0.91421705  0.44453582    -0.32000
C2802       C  0.75038666  0.89761672  0.42999685     0.37000
H2803       H  0.75307843  0.92689689  0.38480254     0.17400
O2804       O  0.74428060  0.95917139  0.40880733    -0.59500
H2805       H  0.75413849  0.91032596  0.46118827     0.17400
O2806       O  0.74484354  0.87793599  0.43729857    -0.59600
H2807       H  0.75449290  0.87460945  0.44927703     0.44400
H2808       H  0.75409536  0.96271387  0.39702381     0.44400
loop_ 
_geom_bond_atom_site_label_1 
_geom_bond_atom_site_label_2 
_geom_bond_distance 
_geom_bond_site_symmetry_2 
_ccdc_geom_bond_type 
N1            C5   1.368       .  A
N1            C2   1.368       .  A
N1         C2797   1.457       .  S
C2            C3   1.381       .  A
C2         C2785   1.485       .  S
C3            C4   1.370       .  A
C3            H6   1.082       .  S
C4            C5   1.382       .  A
C4            H7   1.082       .  S
C5         C2773   1.487       .  S
N8           C12   1.353       .  A
N8            C9   1.354       .  A
N8         C2764   1.435       .  S
C9           C10   1.381       .  A
C9         C2749   1.477       .  S
C10          C11   1.381       .  A
C10          H13   1.082       .  S
C11          C12   1.384       .  A
C11          H14   1.082       .  S
C12        C2737   1.482       .  S
N15          C19   1.355       .  A
N15          C16   1.353       .  A
N15        C2725   1.437       .  S
C16          C17   1.381       .  A
C16        C2713   1.478       .  S
C17          C18   1.381       .  A
C17          H20   1.082       .  S
C18          C19   1.383       .  A
C18          H21   1.082       .  S
C19        C2704   1.480       .  S
N22          C26   1.355       .  A
N22          C23   1.353       .  A
N22        C2692   1.435       .  S
C23          C24   1.381       .  A
C23        C2677   1.479       .  S
C24          C25   1.382       .  A
C24          H27   1.082       .  S
C25          C26   1.385       .  A
C25          H28   1.082       .  S
C26        C2668   1.484       .  S
N29          C34   1.348       .  A
N29          C33   1.353       .  A
N29          H61   1.043       .  S
N30          C37   1.349       .  A
N30          C38   1.346   1_565  A
N31          C36   1.351       .  A
N31          C35   1.350       .  A
N31          H62   1.041       .  S
N32          C39   1.348       .  A
N32          C40   1.348   1_565  A
C33          C41   1.388       .  A
C33          C49   1.419       .  A
C34          C50   1.408       .  A
C34          C42   1.386       .  A
C35          C43   1.388       .  A
C35          C52   1.412       .  A
C36          C51   1.411       .  A
C36          C44   1.386       .  A
C37          C49   1.416       .  A
C37          C45   1.388       .  A
C38          C52   1.403       .  A
C38          C46   1.383   1_545  A
C39          C47   1.387       .  A
C39          C50   1.408       .  A
C40          C48   1.386       .  A
C40          C51   1.406       .  A
C41          C42   1.378       .  A
C41          H53   1.082       .  S
C42          H54   1.081       .  S
C43          C44   1.379       .  A
C43          H55   1.082       .  S
C44          H56   1.082       .  S
C45          C46   1.377       .  A
C45          H57   1.082       .  S
C46          H58   1.081   1_565  S
C47          C48   1.373   1_565  A
C47          H59   1.082       .  S
C48          H60   1.082       .  S
C49        C2800   1.509       .  S
C50        C2761   1.476       .  S
C51        C2689   1.477       .  S
C52        C2728   1.476       .  S
N63          C67   1.353       .  A
N63          C64   1.353       .  A
N63        C2656   1.436       .  S
C64          C65   1.383       .  A
C64        C2629   1.481       .  S
C65          C66   1.380       .  A
C65          H68   1.082       .  S
C66          C67   1.382       .  A
C66          H69   1.082       .  S
C67        C2641   1.477       .  S
N70          C74   1.362       .  A
N70          C71   1.364       .  A
N70        C2620   1.451       .  S
C71          C72   1.383       .  A
C71        C2593   1.488       .  S
C72          C73   1.376       .  A
C72          H75   1.082       .  S
C73          C74   1.382       .  A
C73          H76   1.082       .  S
C74        C2605   1.483       .  S
N77          C81   1.355       .  A
N77          C78   1.355       .  A
N77        C2584   1.438       .  S
C78          C79   1.382       .  A
C78        C2560   1.481       .  S
C79          C80   1.380       .  A
C79          H82   1.082       .  S
C80          C81   1.383       .  A
C80          H83   1.082       .  S
C81        C2569   1.482       .  S
N84          C88   1.367       .  A
N84          C85   1.367       .  A
N84        C2545   1.454       .  S
C85          C86   1.382       .  A
C85        C2521   1.489       .  S
C86          C87   1.371       .  A
C86          H89   1.082       .  S
C87          C88   1.381       .  A
C87          H90   1.082       .  S
C88        C2533   1.486       .  S
N91          C96   1.352       .  A
N91          C95   1.345       .  A
N91         H123   1.044       .  S
N92          C99   1.347   1_455  A
N92         C100   1.348       .  A
N93          C98   1.351       .  A
N93          C97   1.347       .  A
N93         H124   1.044       .  S
N94         C101   1.344   1_455  A
N94         C102   1.345       .  A
C95         C103   1.382       .  A
C95         C111   1.400       .  A
C96         C112   1.421       .  A
C96         C104   1.392       .  A
C97         C105   1.382       .  A
C97         C114   1.401       .  A
C98         C113   1.418       .  A
C98         C106   1.390       .  A
C99         C111   1.406       .  A
C99         C107   1.387       .  A
C100        C114   1.405       .  A
C100        C108   1.386       .  A
C101        C109   1.386       .  A
C101        C112   1.409       .  A
C102        C110   1.387       .  A
C102        C113   1.410       .  A
C103        C104   1.381       .  A
C103        H115   1.082       .  S
C104        H116   1.081       .  S
C105        C106   1.380       .  A
C105        H117   1.082       .  S
C106        H118   1.082       .  S
C107        C108   1.378   1_655  A
C107        H119   1.082       .  S
C108        H120   1.082       .  S
C109        C110   1.381   1_655  A
C109        H121   1.082       .  S
C110        H122   1.082       .  S
C111       C2653   1.471       .  S
C112       C2617   1.504       .  S
C113       C2548   1.503       .  S
C114       C2581   1.475       .  S
N125        C129   1.355       .  A
N125        C126   1.354       .  A
N125       C2509   1.437       .  S
C126        C127   1.382       .  A
C126       C2500   1.479       .  S
C127        C128   1.378       .  A
C127        H130   1.082       .  S
C128        C129   1.384       .  A
C128        H131   1.082       .  S
C129       C2488   1.483       .  S
N132        C136   1.355       .  A
N132        C133   1.353       .  A
N132       C2473   1.435       .  S
C133        C134   1.384       .  A
C133       C2461   1.483       .  S
C134        C135   1.381       .  A
C134        H137   1.082       .  S
C135        C136   1.383       .  A
C135        H138   1.082       .  S
C136       C2449   1.482       .  S
N139        C143   1.355       .  A
N139        C140   1.354       .  A
N139       C2437   1.436       .  S
C140        C141   1.381       .  A
C140       C2428   1.478       .  S
C141        C142   1.379       .  A
C141        H144   1.082       .  S
C142        C143   1.384       .  A
C142        H145   1.082       .  S
C143       C2413   1.483       .  S
N146        C150   1.353       .  A
N146        C147   1.353       .  A
N146       C2401   1.435       .  S
C147        C148   1.383       .  A
C147       C2389   1.477       .  S
C148        C149   1.378       .  A
C148        H151   1.082       .  S
C149        C150   1.382       .  A
C149        H152   1.082       .  S
C150       C2377   1.477       .  S
N153        C158   1.352       .  A
N153        C157   1.352   1_565  A
N153        H185   1.041       .  S
N154        C161   1.349       .  A
N154        C162   1.350       .  A
N155        C160   1.351   1_545  A
N155        C159   1.351       .  A
N155        H186   1.041       .  S
N156        C163   1.350       .  A
N156        C164   1.350       .  A
C157        C165   1.387       .  A
C157        C173   1.414       .  A
C158        C174   1.414       .  A
C158        C166   1.387       .  A
C159        C167   1.387       .  A
C159        C176   1.413       .  A
C160        C175   1.413       .  A
C160        C168   1.388       .  A
C161        C173   1.411       .  A
C161        C169   1.387       .  A
C162        C176   1.411       .  A
C162        C170   1.386       .  A
C163        C171   1.386       .  A
C163        C174   1.411       .  A
C164        C172   1.387       .  A
C164        C175   1.412       .  A
C165        C166   1.378   1_545  A
C165        H177   1.082       .  S
C166        H178   1.082       .  S
C167        C168   1.377   1_545  A
C167        H179   1.082       .  S
C168        H180   1.082       .  S
C169        C170   1.374       .  A
C169        H181   1.082       .  S
C170        H182   1.082       .  S
C171        C172   1.375       .  A
C171        H183   1.082       .  S
C172        H184   1.082       .  S
C173       C2440   1.488       .  S
C174       C2512   1.490       .  S
C175       C2476   1.488       .  S
C176       C2404   1.487       .  S
N187        C191   1.354       .  A
N187        C188   1.356       .  A
N187       C2365   1.438       .  S
C188        C189   1.383       .  A
C188       C2353   1.481       .  S
C189        C190   1.377       .  A
C189        H192   1.082       .  S
C190        C191   1.384       .  A
C190        H193   1.082       .  S
C191       C2341   1.481       .  S
N194        C198   1.352       .  A
N194        C195   1.351       .  A
N194       C2332   1.435       .  S
C195        C196   1.382       .  A
C195       C2317   1.475       .  S
C196        C197   1.382       .  A
C196        H199   1.082       .  S
C197        C198   1.383       .  A
C197        H200   1.082       .  S
C198       C2305   1.476       .  S
N201        C205   1.357       .  A
N201        C202   1.356       .  A
N201       C2296   1.434       .  S
C202        C203   1.384       .  A
C202       C2281   1.487       .  S
C203        C204   1.379       .  A
C203        H206   1.082       .  S
C204        C205   1.383       .  A
C204        H207   1.082       .  S
C205       C2269   1.486       .  S
N208        C212   1.356       .  A
N208        C209   1.355       .  A
N208       C2260   1.437       .  S
C209        C210   1.383       .  A
C209       C2245   1.482       .  S
C210        C211   1.378       .  A
C210        H213   1.082       .  S
C211        C212   1.383       .  A
C211        H214   1.082       .  S
C212       C2233   1.484       .  S
N215        C220   1.352       .  A
N215        C219   1.352   1_565  A
N215        H247   1.038       .  S
N216        C223   1.348       .  A
N216        C224   1.350       .  A
N217        C222   1.352       .  A
N217        C221   1.351   1_565  A
N217        H248   1.038       .  S
N218        C225   1.350       .  A
N218        C226   1.349       .  A
C219        C227   1.386   1_545  A
C219        C235   1.412       .  A
C220        C236   1.415       .  A
C220        C228   1.387       .  A
C221        C229   1.386   1_545  A
C221        C238   1.411       .  A
C222        C237   1.411       .  A
C222        C230   1.387       .  A
C223        C235   1.409       .  A
C223        C231   1.387       .  A
C224        C238   1.409       .  A
C224        C232   1.386       .  A
C225        C233   1.387       .  A
C225        C236   1.414       .  A
C226        C234   1.386       .  A
C226        C237   1.411       .  A
C227        C228   1.379       .  A
C227        H239   1.083   1_565  S
C228        H240   1.083       .  S
C229        C230   1.378       .  A
C229        H241   1.083   1_565  S
C230        H242   1.082       .  S
C231        C232   1.374       .  A
C231        H243   1.082       .  S
C232        H244   1.082       .  S
C233        C234   1.376       .  A
C233        H245   1.082       .  S
C234        H246   1.082       .  S
C235       C2293   1.484       .  S
C236       C2368   1.493       .  S
C237       C2329   1.485       .  S
C238       C2257   1.487       .  S
N249        C253   1.355       .  A
N249        C250   1.356       .  A
N249       C2221   1.436       .  S
C250        C251   1.384       .  A
C250       C2209   1.487       .  S
C251        C252   1.378       .  A
C251        H254   1.082       .  S
C252        C253   1.382       .  A
C252        H255   1.082       .  S
C253       C2197   1.480       .  S
N256        C260   1.355       .  A
N256        C257   1.352       .  A
N256       C2185   1.437       .  S
C257        C258   1.382       .  A
C257       C2161   1.477       .  S
C258        C259   1.379       .  A
C258        H261   1.082       .  S
C259        C260   1.384       .  A
C259        H262   1.082       .  S
C260       C2173   1.480       .  S
N263        C267   1.353       .  A
N263        C264   1.352       .  A
N263       C2152   1.434       .  S
C264        C265   1.383       .  A
C264       C2137   1.479       .  S
C265        C266   1.381       .  A
C265        H268   1.082       .  S
C266        C267   1.382       .  A
C266        H269   1.082       .  S
C267       C2128   1.476       .  S
N270        C274   1.356       .  A
N270        C271   1.356       .  A
N270       C2113   1.438       .  S
C271        C272   1.383       .  A
C271       C2101   1.481       .  S
C272        C273   1.378       .  A
C272        H275   1.082       .  S
C273        C274   1.382       .  A
C273        H276   1.082       .  S
C274       C2089   1.482       .  S
N277        C282   1.354       .  A
N277        C281   1.352   1_556  A
N277        H309   1.042       .  S
N278        C285   1.350       .  A
N278        C286   1.350       .  A
N279        C284   1.351       .  A
N279        C283   1.349   1_556  A
N279        H310   1.042       .  S
N280        C287   1.347       .  A
N280        C288   1.348       .  A
C281        C289   1.387   1_554  A
C281        C297   1.416       .  A
C282        C298   1.415       .  A
C282        C290   1.387       .  A
C283        C291   1.387   1_554  A
C283        C300   1.409       .  A
C284        C299   1.412       .  A
C284        C292   1.387       .  A
C285        C297   1.413       .  A
C285        C293   1.387       .  A
C286        C300   1.410       .  A
C286        C294   1.386       .  A
C287        C295   1.386       .  A
C287        C298   1.407       .  A
C288        C296   1.387       .  A
C288        C299   1.410       .  A
C289        C290   1.377       .  A
C289        H301   1.082   1_556  S
C290        H302   1.082       .  S
C291        C292   1.377       .  A
C291        H303   1.083   1_556  S
C292        H304   1.082       .  S
C293        C294   1.376       .  A
C293        H305   1.082       .  S
C294        H306   1.083       .  S
C295        C296   1.376       .  A
C295        H307   1.083       .  S
C296        H308   1.082       .  S
C297       C2116   1.494       .  S
C298       C2188   1.489       .  S
C299       C2224   1.488       .  S
C300       C2149   1.483       .  S
N311        C315   1.352       .  A
N311        C312   1.351       .  A
N311       C2077   1.435       .  S
C312        C313   1.383       .  A
C312       C2068   1.477       .  S
C313        C314   1.378       .  A
C313        H316   1.082       .  S
C314        C315   1.384       .  A
C314        H317   1.082       .  S
C315       C2053   1.476       .  S
N318        C322   1.355       .  A
N318        C319   1.357       .  A
N318       C2041   1.433       .  S
C319        C320   1.387       .  A
C319       C2029   1.494       .  S
C320        C321   1.381       .  A
C320        H323   1.082       .  S
C321        C322   1.381       .  A
C321        H324   1.082       .  S
C322       C2020   1.484       .  S
N325        C329   1.353       .  A
N325        C326   1.355       .  A
N325       C2005   1.434       .  S
C326        C327   1.382       .  A
C326       C1993   1.483       .  S
C327        C328   1.381       .  A
C327        H330   1.082       .  S
C328        C329   1.383       .  A
C328        H331   1.082       .  S
C329       C1984   1.479       .  S
N332        C336   1.357       .  A
N332        C333   1.358       .  A
N332       C1972   1.440       .  S
C333        C334   1.383       .  A
C333       C1957   1.485       .  S
C334        C335   1.377       .  A
C334        H337   1.082       .  S
C335        C336   1.383       .  A
C335        H338   1.082       .  S
C336       C1945   1.484       .  S
N339        C344   1.350       .  A
N339        C343   1.352       .  A
N339        H371   1.042       .  S
N340        C347   1.348   1_545  A
N340        C348   1.348       .  A
N341        C346   1.352       .  A
N341        C345   1.350       .  A
N341        H372   1.041       .  S
N342        C349   1.349   1_545  A
N342        C350   1.351       .  A
C343        C351   1.386       .  A
C343        C359   1.412       .  A
C344        C360   1.414       .  A
C344        C352   1.388       .  A
C345        C353   1.387       .  A
C345        C362   1.413       .  A
C346        C361   1.415       .  A
C346        C354   1.387       .  A
C347        C359   1.406       .  A
C347        C355   1.385       .  A
C348        C362   1.409       .  A
C348        C356   1.388       .  A
C349        C357   1.387       .  A
C349        C360   1.412       .  A
C350        C358   1.386       .  A
C350        C361   1.412       .  A
C351        C352   1.379       .  A
C351        H363   1.083       .  S
C352        H364   1.082       .  S
C353        C354   1.381       .  A
C353        H365   1.083       .  S
C354        H366   1.083       .  S
C355        C356   1.373   1_565  A
C355        H367   1.083       .  S
C356        H368   1.082       .  S
C357        C358   1.374   1_565  A
C357        H369   1.082       .  S
C358        H370   1.082       .  S
C359       C2080   1.486       .  S
C360       C2044   1.489       .  S
C361       C1969   1.495       .  S
C362       C2008   1.483       .  S
N373        C377   1.354       .  A
N373        C374   1.355       .  A
N373       C1936   1.440       .  S
C374        C375   1.383       .  A
C374       C1909   1.479       .  S
C375        C376   1.380       .  A
C375        H378   1.082       .  S
C376        C377   1.382       .  A
C376        H379   1.082       .  S
C377       C1921   1.476       .  S
N380        C384   1.352       .  A
N380        C381   1.354       .  A
N380       C1897   1.436       .  S
C381        C382   1.382       .  A
C381       C1873   1.477       .  S
C382        C383   1.380       .  A
C382        H385   1.082       .  S
C383        C384   1.381       .  A
C383        H386   1.082       .  S
C384       C1885   1.473       .  S
N387        C391   1.363       .  A
N387        C388   1.365       .  A
N387       C1864   1.451       .  S
C388        C389   1.383       .  A
C388       C1837   1.487       .  S
C389        C390   1.374       .  A
C389        H392   1.082       .  S
C390        C391   1.381       .  A
C390        H393   1.082       .  S
C391       C1849   1.484       .  S
N394        C398   1.367       .  A
N394        C395   1.369       .  A
N394       C1825   1.454       .  S
C395        C396   1.382       .  A
C395       C1804   1.492       .  S
C396        C397   1.375       .  A
C396        H399   1.082       .  S
C397        C398   1.382       .  A
C397        H400   1.082       .  S
C398       C1816   1.494       .  S
N401        C406   1.349   1_554  A
N401        C405   1.352       .  A
N401        H433   1.044       .  S
N402        C409   1.345       .  A
N402        C410   1.348       .  A
N403        C408   1.349   1_554  A
N403        C407   1.351       .  A
N403        H434   1.044       .  S
N404        C411   1.347       .  A
N404        C412   1.347       .  A
C405        C413   1.393       .  A
C405        C421   1.424       .  A
C406        C422   1.403       .  A
C406        C414   1.381   1_556  A
C407        C415   1.389       .  A
C407        C424   1.419       .  A
C408        C423   1.405       .  A
C408        C416   1.383   1_556  A
C409        C421   1.412       .  A
C409        C417   1.386       .  A
C410        C424   1.414       .  A
C410        C418   1.387       .  A
C411        C419   1.386       .  A
C411        C422   1.404       .  A
C412        C420   1.386       .  A
C412        C423   1.405       .  A
C413        C414   1.378       .  A
C413        H425   1.081       .  S
C414        H426   1.082   1_554  S
C415        C416   1.379       .  A
C415        H427   1.082       .  S
C416        H428   1.082       .  S
C417        C418   1.382       .  A
C417        H429   1.082       .  S
C418        H430   1.082       .  S
C419        C420   1.376       .  A
C419        H431   1.082       .  S
C420        H432   1.082       .  S
C421       C1861   1.506       .  S
C422       C1933   1.477       .  S
C423       C1900   1.476       .  S
C424       C1828   1.509       .  S
N435        C439   1.366       .  A
N435        C436   1.364       .  A
N435       C1792   1.452       .  S
C436        C437   1.380       .  A
C436       C1765   1.481       .  S
C437        C438   1.372       .  A
C437        H440   1.082       .  S
C438        C439   1.383       .  A
C438        H441   1.082       .  S
C439       C1780   1.488       .  S
N442        C446   1.355       .  A
N442        C443   1.355       .  A
N442       C1753   1.435       .  S
C443        C444   1.382       .  A
C443       C1729   1.481       .  S
C444        C445   1.379       .  A
C444        H447   1.082       .  S
C445        C446   1.382       .  A
C445        H448   1.082       .  S
C446       C1741   1.480       .  S
N449        C453   1.353       .  A
N449        C450   1.354       .  A
N449       C1720   1.438       .  S
C450        C451   1.382       .  A
C450       C1693   1.475       .  S
C451        C452   1.379       .  A
C451        H454   1.082       .  S
C452        C453   1.382       .  A
C452        H455   1.082       .  S
C453       C1705   1.477       .  S
N456        C460   1.352       .  A
N456        C457   1.351       .  A
N456       C1684   1.436       .  S
C457        C458   1.382       .  A
C457       C1660   1.472       .  S
C458        C459   1.379       .  A
C458        H461   1.082       .  S
C459        C460   1.384       .  A
C459        H462   1.082       .  S
C460       C1672   1.476       .  S
N463        C468   1.351       .  A
N463        C467   1.347   1_556  A
N463        H495   1.043       .  S
N464        C471   1.348       .  A
N464        C472   1.348       .  A
N465        C470   1.352       .  A
N465        C469   1.354   1_556  A
N465        H496   1.040       .  S
N466        C473   1.351       .  A
N466        C474   1.348       .  A
C467        C475   1.386       .  A
C467        C483   1.406       .  A
C468        C484   1.414       .  A
C468        C476   1.387       .  A
C469        C477   1.387   1_554  A
C469        C486   1.415       .  A
C470        C485   1.416       .  A
C470        C478   1.388       .  A
C471        C483   1.407       .  A
C471        C479   1.386       .  A
C472        C486   1.407       .  A
C472        C480   1.387       .  A
C473        C481   1.387       .  A
C473        C484   1.418       .  A
C474        C482   1.384       .  A
C474        C485   1.407       .  A
C475        C476   1.377   1_554  A
C475        H487   1.081       .  S
C476        H488   1.082       .  S
C477        C478   1.375       .  A
C477        H489   1.082   1_556  S
C478        H490   1.082       .  S
C479        C480   1.374       .  A
C479        H491   1.082       .  S
C480        H492   1.082       .  S
C481        C482   1.374       .  A
C481        H493   1.081       .  S
C482        H494   1.080       .  S
C483       C1717   1.474       .  S
C484       C1789   1.507       .  S
C485       C1756   1.482       .  S
C486       C1681   1.481       .  S
N497        C501   1.363       .  A
N497        C498   1.364       .  A
N497       C1645   1.451       .  S
C498        C499   1.383       .  A
C498       C1633   1.487       .  S
C499        C500   1.373       .  A
C499        H502   1.082       .  S
C500        C501   1.381       .  A
C500        H503   1.082       .  S
C501       C1621   1.483       .  S
N504        C508   1.355       .  A
N504        C505   1.355       .  A
N504       C1609   1.439       .  S
C505        C506   1.382       .  A
C505       C1585   1.480       .  S
C506        C507   1.380       .  A
C506        H509   1.082       .  S
C507        C508   1.382       .  A
C507        H510   1.082       .  S
C508       C1597   1.478       .  S
N511        C515   1.357       .  A
N511        C512   1.357       .  A
N511       C1576   1.438       .  S
C512        C513   1.383       .  A
C512       C1561   1.485       .  S
C513        C514   1.383       .  A
C513        H516   1.082       .  S
C514        C515   1.383       .  A
C514        H517   1.082       .  S
C515       C1549   1.486       .  S
N518        C522   1.354       .  A
N518        C519   1.355       .  A
N518       C1540   1.433       .  S
C519        C520   1.383       .  A
C519       C1513   1.485       .  S
C520        C521   1.383       .  A
C520        H523   1.082       .  S
C521        C522   1.383       .  A
C521        H524   1.082       .  S
C522       C1525   1.486       .  S
N525        C530   1.348       .  A
N525        C529   1.352       .  A
N525        H557   1.043       .  S
N526        C533   1.347       .  A
N526        C534   1.345   1_655  A
N527        C532   1.349       .  A
N527        C531   1.350       .  A
N527        H558   1.041       .  S
N528        C535   1.350       .  A
N528        C536   1.349   1_655  A
C529        C537   1.390       .  A
C529        C545   1.421       .  A
C530        C546   1.405       .  A
C530        C538   1.383       .  A
C531        C539   1.387       .  A
C531        C548   1.410       .  A
C532        C547   1.409       .  A
C532        C540   1.387       .  A
C533        C545   1.412       .  A
C533        C541   1.388       .  A
C534        C548   1.401       .  A
C534        C542   1.383       .  A
C535        C543   1.386       .  A
C535        C546   1.408       .  A
C536        C544   1.387       .  A
C536        C547   1.409       .  A
C537        C538   1.379       .  A
C537        H549   1.082       .  S
C538        H550   1.082       .  S
C539        C540   1.377       .  A
C539        H551   1.082       .  S
C540        H552   1.082       .  S
C541        C542   1.377   1_655  A
C541        H553   1.082       .  S
C542        H554   1.082       .  S
C543        C544   1.376   1_655  A
C543        H555   1.082       .  S
C544        H556   1.082       .  S
C545       C1648   1.505       .  S
C546       C1612   1.480       .  S
C547       C1537   1.474       .  S
C548       C1573   1.474       .  S
N559        C563   1.359       .  A
N559        C560   1.356       .  A
N559       C1504   1.440       .  S
C560        C561   1.380       .  A
C560       C1492   1.479       .  S
C561        C562   1.378       .  A
C561        H564   1.082       .  S
C562        C563   1.385       .  A
C562        H565   1.082       .  S
C563       C1477   1.488       .  S
N566        C570   1.368       .  A
N566        C567   1.367       .  A
N566       C1465   1.454       .  S
C567        C568   1.380       .  A
C567       C1441   1.486       .  S
C568        C569   1.371       .  A
C568        H571   1.082       .  S
C569        C570   1.382       .  A
C569        H572   1.082       .  S
C570       C1453   1.488       .  S
N573        C577   1.353       .  A
N573        C574   1.355       .  A
N573       C1429   1.434       .  S
C574        C575   1.384       .  A
C574       C1417   1.486       .  S
C575        C576   1.383       .  A
C575        H578   1.082       .  S
C576        C577   1.382       .  A
C576        H579   1.082       .  S
C577       C1408   1.481       .  S
N580        C584   1.355       .  A
N580        C581   1.357       .  A
N580       C1393   1.437       .  S
C581        C582   1.383       .  A
C581       C1369   1.485       .  S
C582        C583   1.381       .  A
C582        H585   1.082       .  S
C583        C584   1.382       .  A
C583        H586   1.082       .  S
C584       C1381   1.481       .  S
N587        C592   1.349   1_556  A
N587        C591   1.351       .  A
N587        H619   1.042       .  S
N588        C595   1.348       .  A
N588        C596   1.347       .  A
N589        C594   1.349       .  A
N589        C593   1.352   1_554  A
N589        H620   1.041       .  S
N590        C597   1.350       .  A
N590        C598   1.348       .  A
C591        C599   1.389       .  A
C591        C607   1.419       .  A
C592        C608   1.406       .  A
C592        C600   1.385       .  A
C593        C601   1.387       .  A
C593        C610   1.410       .  A
C594        C609   1.408       .  A
C594        C602   1.387       .  A
C595        C607   1.417       .  A
C595        C603   1.390       .  A
C596        C610   1.400       .  A
C596        C604   1.381       .  A
C597        C605   1.386       .  A
C597        C608   1.408       .  A
C598        C606   1.387       .  A
C598        C609   1.407       .  A
C599        C600   1.378   1_556  A
C599        H611   1.082       .  S
C600        H612   1.081       .  S
C601        C602   1.376   1_556  A
C601        H613   1.083       .  S
C602        H614   1.082       .  S
C603        C604   1.376       .  A
C603        H615   1.082       .  S
C604        H616   1.082       .  S
C605        C606   1.372       .  A
C605        H617   1.082       .  S
C606        H618   1.083       .  S
C607       C1468   1.502       .  S
C608       C1396   1.479       .  S
C609       C1432   1.471       .  S
C610       C1501   1.478       .  S
N621        C625   1.354       .  A
N621        C622   1.353       .  A
N621       C1357   1.433       .  S
C622        C623   1.384       .  A
C622       C1333   1.484       .  S
C623        C624   1.381       .  A
C623        H626   1.082       .  S
C624        C625   1.383       .  A
C624        H627   1.082       .  S
C625       C1345   1.483       .  S
N628        C632   1.354       .  A
N628        C629   1.357       .  A
N628       C1324   1.433       .  S
C629        C630   1.385       .  A
C629       C1297   1.492       .  S
C630        C631   1.381       .  A
C630        H633   1.082       .  S
C631        C632   1.382       .  A
C631        H634   1.082       .  S
C632       C1309   1.485       .  S
N635        C639   1.354       .  A
N635        C636   1.352       .  A
N635       C1285   1.433       .  S
C636        C637   1.383       .  A
C636       C1261   1.481       .  S
C637        C638   1.382       .  A
C637        H640   1.082       .  S
C638        C639   1.384       .  A
C638        H641   1.082       .  S
C639       C1276   1.482       .  S
N642        C646   1.354       .  A
N642        C643   1.351       .  A
N642       C1252   1.434       .  S
C643        C644   1.382       .  A
C643       C1225   1.478       .  S
C644        C645   1.381       .  A
C644        H647   1.082       .  S
C645        C646   1.385       .  A
C645        H648   1.082       .  S
C646       C1240   1.484       .  S
N649        C654   1.349       .  A
N649        C653   1.351       .  A
N649        H681   1.041       .  S
N650        C657   1.348   1_455  A
N650        C658   1.348       .  A
N651        C656   1.351       .  A
N651        C655   1.353       .  A
N651        H682   1.042       .  S
N652        C659   1.350   1_455  A
N652        C660   1.349       .  A
C653        C661   1.387       .  A
C653        C669   1.411       .  A
C654        C670   1.410       .  A
C654        C662   1.387       .  A
C655        C663   1.387       .  A
C655        C672   1.413       .  A
C656        C671   1.413       .  A
C656        C664   1.387       .  A
C657        C669   1.410       .  A
C657        C665   1.387       .  A
C658        C672   1.410       .  A
C658        C666   1.386       .  A
C659        C667   1.387       .  A
C659        C670   1.411       .  A
C660        C668   1.386       .  A
C660        C671   1.410       .  A
C661        C662   1.376       .  A
C661        H673   1.082       .  S
C662        H674   1.083       .  S
C663        C664   1.376       .  A
C663        H675   1.082       .  S
C664        H676   1.082       .  S
C665        C666   1.376   1_655  A
C665        H677   1.083       .  S
C666        H678   1.082       .  S
C667        C668   1.375   1_655  A
C667        H679   1.082       .  S
C668        H680   1.082       .  S
C669       C1321   1.483       .  S
C670       C1360   1.483       .  S
C671       C1288   1.485       .  S
C672       C1249   1.489       .  S
N683        C687   1.355       .  A
N683        C684   1.354       .  A
N683       C1213   1.435       .  S
C684        C685   1.381       .  A
C684       C1189   1.479       .  S
C685        C686   1.378       .  A
C685        H688   1.082       .  S
C686        C687   1.385       .  A
C686        H689   1.082       .  S
C687       C1201   1.485       .  S
N690        C694   1.355       .  A
N690        C691   1.354       .  A
N690       C1177   1.432       .  S
C691        C692   1.383       .  A
C691       C1156   1.484       .  S
C692        C693   1.380       .  A
C692        H695   1.082       .  S
C693        C694   1.384       .  A
C693        H696   1.082       .  S
C694       C1165   1.486       .  S
N697        C701   1.353       .  A
N697        C698   1.350       .  A
N697       C1144   1.435       .  S
C698        C699   1.382       .  A
C698       C1129   1.475       .  S
C699        C700   1.381       .  A
C699        H702   1.082       .  S
C700        C701   1.385       .  A
C700        H703   1.082       .  S
C701       C1120   1.482       .  S
N704        C708   1.354       .  A
N704        C705   1.353       .  A
N704       C1105   1.433       .  S
C705        C706   1.383       .  A
C705       C1096   1.481       .  S
C706        C707   1.380       .  A
C706        H709   1.082       .  S
C707        C708   1.383       .  A
C707        H710   1.082       .  S
C708       C1081   1.482       .  S
N711        C716   1.349       .  A
N711        C715   1.349       .  A
N711        H743   1.042       .  S
N712        C719   1.350       .  A
N712        C720   1.349   1_655  A
N713        C718   1.351       .  A
N713        C717   1.351       .  A
N713        H744   1.042       .  S
N714        C721   1.348       .  A
N714        C722   1.347   1_655  A
C715        C723   1.387       .  A
C715        C731   1.409       .  A
C716        C732   1.410       .  A
C716        C724   1.387       .  A
C717        C725   1.387       .  A
C717        C734   1.413       .  A
C718        C733   1.412       .  A
C718        C726   1.387       .  A
C719        C731   1.411       .  A
C719        C727   1.386       .  A
C720        C734   1.411       .  A
C720        C728   1.387       .  A
C721        C729   1.386       .  A
C721        C732   1.408       .  A
C722        C730   1.386       .  A
C722        C733   1.408       .  A
C723        C724   1.377       .  A
C723        H735   1.083       .  S
C724        H736   1.083       .  S
C725        C726   1.379       .  A
C725        H737   1.082       .  S
C726        H738   1.083       .  S
C727        C728   1.375   1_655  A
C727        H739   1.082       .  S
C728        H740   1.082       .  S
C729        C730   1.375   1_655  A
C729        H741   1.082       .  S
C730        H742   1.083       .  S
C731       C1216   1.486       .  S
C732       C1180   1.483       .  S
C733       C1108   1.483       .  S
C734       C1141   1.486       .  S
O745       Ni753   1.916       .  S
O745        C755   1.281       .  A
O746       Ni753   1.914   1_655  S
O746        C756   1.281       .  A
O747       Ni753   1.919   1_655  S
O747        C757   1.282       .  A
O748       Ni753   1.917       .  S
O748        C758   1.282       .  A
O749       Ni754   1.917       .  S
O749        C758   1.281       .  A
O750       Ni754   1.919   1_655  S
O750        C757   1.282       .  A
O751       Ni754   1.921   1_655  S
O751        C756   1.283       .  A
O752       Ni754   1.920       .  S
O752        C755   1.283       .  A
Ni753      Ni754   2.383       .  S
C755       C1264   1.489       .  S
C756       C1192   1.488       .  S
C757       C1336   1.487       .  S
C758       C1117   1.488       .  S
O759       Ni767   1.914       .  S
O759        C769   1.281       .  A
O760       Ni767   1.909       .  S
O760        C770   1.280       .  A
O761       Ni767   1.915       .  S
O761        C771   1.281       .  A
O762       Ni767   1.916       .  S
O762        C772   1.280       .  A
O763       Ni768   1.925       .  S
O763        C772   1.282       .  A
O764       Ni768   1.920       .  S
O764        C771   1.282       .  A
O765       Ni768   1.929       .  S
O765        C770   1.284       .  A
O766       Ni768   1.924       .  S
O766        C769   1.283       .  A
Ni767      Ni768   2.385       .  S
C769       C1204   1.489       .  S
C770       C2680   1.485       .  S
C771       C1168   1.488       .  S
C772       C2716   1.476       .  S
O773       Ni781   1.922       .  S
O773        C783   1.282       .  A
O774       Ni781   1.922       .  S
O774        C784   1.283       .  A
O775       Ni781   1.908       .  S
O775        C785   1.279       .  A
O776       Ni781   1.912       .  S
O776        C786   1.281       .  A
O777       Ni782   1.919       .  S
O777        C786   1.282       .  A
O778       Ni782   1.918       .  S
O778        C785   1.282       .  A
O779       Ni782   1.917       .  S
O779        C784   1.281       .  A
O780       Ni782   1.914       .  S
O780        C783   1.281       .  A
Ni781      Ni782   2.383       .  S
C783       C2425   1.488       .  S
C784       C1093   1.489       .  S
C785       C2392   1.484       .  S
C786       C1132   1.486       .  S
O787       Ni795   1.926       .  S
O787        C797   1.283       .  A
O788       Ni795   1.922       .  S
O788        C798   1.282       .  A
O789       Ni795   1.928       .  S
O789        C799   1.283       .  A
O790       Ni795   1.924       .  S
O790        C800   1.283       .  A
O791       Ni796   1.922       .  S
O791        C800   1.283       .  A
O792       Ni796   1.922       .  S
O792        C799   1.281       .  A
O793       Ni796   1.923       .  S
O793        C798   1.283       .  A
O794       Ni796   1.919       .  S
O794        C797   1.281       .  A
Ni795      Ni796   2.384       .  S
C797       C1384   1.486       .  S
C798       C1348   1.493       .  S
C799       C1420   1.481       .  S
C800       C1312   1.494       .  S
O801       Ni809   1.913       .  S
O801        C811   1.280       .  A
O802       Ni809   1.911       .  S
O802        C812   1.280       .  A
O803       Ni809   1.916       .  S
O803        C813   1.281       .  A
O804       Ni809   1.914       .  S
O804        C814   1.281       .  A
O805       Ni810   1.924       .  S
O805        C814   1.283       .  A
O806       Ni810   1.916       .  S
O806        C813   1.280       .  A
O807       Ni810   1.927       .  S
O807        C812   1.285       .  A
O808       Ni810   1.923       .  S
O808        C811   1.282       .  A
Ni809      Ni810   2.386       .  S
C811       C1708   1.473       .  S
C812       C1237   1.490       .  S
C813       C1669   1.473       .  S
C814       C1273   1.491       .  S
O815       Ni823   1.924   1_556  S
O815        C825   1.281       .  A
O816       Ni823   1.923       .  S
O816        C826   1.283       .  A
O817       Ni823   1.924       .  S
O817        C827   1.283       .  A
O818       Ni823   1.924   1_556  S
O818        C828   1.282       .  A
O819       Ni824   1.923   1_556  S
O819        C828   1.282       .  A
O820       Ni824   1.920       .  S
O820        C827   1.282       .  A
O821       Ni824   1.927       .  S
O821        C826   1.284       .  A
O822       Ni824   1.927   1_556  S
O822        C825   1.282       .  A
Ni823      Ni824   2.386       .  S
C825       C1480   1.476       .  S
C826       C1801   1.497       .  S
C827       C1405   1.484       .  S
C828       C1876   1.479       .  S
O829       Ni837   1.910       .  S
O829        C839   1.281       .  A
O830       Ni837   1.911       .  S
O830        C840   1.282       .  A
O831       Ni837   1.919       .  S
O831        C841   1.281       .  A
O832       Ni837   1.922       .  S
O832        C842   1.281       .  A
O833       Ni838   1.920       .  S
O833        C842   1.282       .  A
O834       Ni838   1.920       .  S
O834        C841   1.282       .  A
O835       Ni838   1.934       .  S
O835        C840   1.284       .  A
O836       Ni838   1.931       .  S
O836        C839   1.284       .  A
Ni837      Ni838   2.384       .  S
C839       C1456   1.491       .  S
C840       C1636   1.494       .  S
C841       C1489   1.480       .  S
C842       C1600   1.479       .  S
O843       Ni851   1.928   1_455  S
O843        C853   1.283       .  A
O844       Ni851   1.925       .  S
O844        C854   1.283       .  A
O845       Ni851   1.925       .  S
O845        C855   1.282       .  A
O846       Ni851   1.918   1_455  S
O846        C856   1.282       .  A
O847       Ni852   1.917   1_455  S
O847        C856   1.281       .  A
O848       Ni852   1.911       .  S
O848        C855   1.282       .  A
O849       Ni852   1.919       .  S
O849        C854   1.281       .  A
O850       Ni852   1.921   1_455  S
O850        C853   1.281       .  A
Ni851      Ni852   2.383       .  S
C853       C1552   1.483       .  S
C854       C1153   1.493       .  S
C855       C1624   1.489       .  S
C856       C1084   1.489       .  S
O857       Ni865   1.911       .  S
O857        C867   1.281       .  A
O858       Ni865   1.916       .  S
O858        C868   1.280       .  A
O859       Ni865   1.925       .  S
O859        C869   1.282       .  A
O860       Ni865   1.921       .  S
O860        C870   1.281       .  A
O861       Ni866   1.929       .  S
O861        C870   1.283       .  A
O862       Ni866   1.924       .  S
O862        C869   1.282       .  A
O863       Ni866   1.934       .  S
O863        C868   1.285       .  A
O864       Ni866   1.931       .  S
O864        C867   1.284       .  A
Ni865      Ni866   2.386       .  S
C867       C1777   1.493       .  S
C868       C1528   1.481       .  S
C869       C1744   1.484       .  S
C870       C1564   1.481       .  S
O871       Ni879   1.918   1_556  S
O871        C881   1.281       .  A
O872       Ni879   1.918       .  S
O872        C882   1.281       .  A
O873       Ni879   1.934       .  S
O873        C883   1.285       .  A
O874       Ni879   1.930   1_556  S
O874        C884   1.284       .  A
O875       Ni880   1.910   1_556  S
O875        C884   1.280       .  A
O876       Ni880   1.914       .  S
O876        C883   1.281       .  A
O877       Ni880   1.916       .  S
O877        C882   1.280       .  A
O878       Ni880   1.917   1_556  S
O878        C881   1.280       .  A
Ni879      Ni880   2.385       .  S
C881       C1912   1.473       .  S
C882       C1696   1.470       .  S
C883       C1840   1.496       .  S
C884       C1768   1.491       .  S
O885       Ni893   1.919       .  S
O885        C895   1.281       .  A
O886       Ni893   1.915       .  S
O886        C896   1.281       .  A
O887       Ni893   1.915       .  S
O887        C897   1.281       .  A
O888       Ni893   1.909       .  S
O888        C898   1.281       .  A
O889       Ni894   1.923       .  S
O889        C898   1.282       .  A
O890       Ni894   1.917       .  S
O890        C897   1.282       .  A
O891       Ni894   1.922       .  S
O891        C896   1.283       .  A
O892       Ni894   1.920       .  S
O892        C895   1.282       .  A
Ni893      Ni894   2.385       .  S
C895       C1924   1.481       .  S
C896       C1960   1.489       .  S
C897       C1888   1.478       .  S
C898       C1996   1.487       .  S
O899       Ni907   1.914       .  S
O899        C909   1.281       .  A
O900       Ni907   1.913       .  S
O900        C910   1.280       .  A
O901       Ni907   1.923       .  S
O901        C911   1.283       .  A
O902       Ni907   1.918       .  S
O902        C912   1.281       .  A
O903       Ni908   1.930       .  S
O903        C912   1.284       .  A
O904       Ni908   1.936       .  S
O904        C911   1.285       .  A
O905       Ni908   1.924       .  S
O905        C910   1.283       .  A
O906       Ni908   1.926       .  S
O906        C909   1.283       .  A
Ni907      Ni908   2.381       .  S
C909       C1852   1.492       .  S
C910       C2248   1.488       .  S
C911       C1813   1.502       .  S
C912       C2284   1.494       .  S
O913       Ni921   1.921       .  S
O913        C923   1.282       .  A
O914       Ni921   1.920   1_565  S
O914        C924   1.282       .  A
O915       Ni921   1.911   1_565  S
O915        C925   1.281       .  A
O916       Ni921   1.914       .  S
O916        C926   1.280       .  A
O917       Ni922   1.920       .  S
O917        C926   1.282       .  A
O918       Ni922   1.916   1_565  S
O918        C925   1.281       .  A
O919       Ni922   1.918   1_565  S
O919        C924   1.282       .  A
O920       Ni922   1.920       .  S
O920        C923   1.282       .  A
Ni921      Ni922   2.383       .  S
C923       C1981   1.491       .  S
C924       C2452   1.490       .  S
C925       C2056   1.483       .  S
C926       C2380   1.487       .  S
O927       Ni935   1.912       .  S
O927        C937   1.281       .  A
O928       Ni935   1.913       .  S
O928        C938   1.280       .  A
O929       Ni935   1.926       .  S
O929        C939   1.284       .  A
O930       Ni935   1.928       .  S
O930        C940   1.283       .  A
O931       Ni936   1.916       .  S
O931        C940   1.282       .  A
O932       Ni936   1.916       .  S
O932        C939   1.281       .  A
O933       Ni936   1.911       .  S
O933        C938   1.281       .  A
O934       Ni936   1.912       .  S
O934        C937   1.281       .  A
Ni935      Ni936   2.383       .  S
C937       C2176   1.483       .  S
C938       C2065   1.481       .  S
C939       C2212   1.491       .  S
C940       C2032   1.489       .  S
O941       Ni949   1.903   1_554  S
O941        C951   1.279       .  A
O942       Ni949   1.907       .  S
O942        C952   1.279       .  A
O943       Ni949   1.920       .  S
O943        C953   1.283       .  A
O944       Ni949   1.921   1_554  S
O944        C954   1.282       .  A
O945       Ni950   1.906   1_554  S
O945        C954   1.280       .  A
O946       Ni950   1.908       .  S
O946        C953   1.279       .  A
O947       Ni950   1.931       .  S
O947        C952   1.285       .  A
O948       Ni950   1.931   1_554  S
O948        C951   1.284       .  A
Ni949      Ni950   2.384       .  S
C951       C2125   1.487       .  S
C952       C1732   1.488       .  S
C953       C2200   1.485       .  S
C954       C1657   1.479       .  S
O955       Ni963   1.917       .  S
O955        C965   1.282       .  A
O956       Ni963   1.917       .  S
O956        C966   1.281       .  A
O957       Ni963   1.915       .  S
O957        C967   1.281       .  A
O958       Ni963   1.917       .  S
O958        C968   1.281       .  A
O959       Ni964   1.923       .  S
O959        C968   1.283       .  A
O960       Ni964   1.924       .  S
O960        C967   1.283       .  A
O961       Ni964   1.917       .  S
O961        C966   1.282       .  A
O962       Ni964   1.913       .  S
O962        C965   1.280       .  A
Ni963      Ni964   2.383       .  S
C965       C2104   1.485       .  S
C966       C2356   1.488       .  S
C967       C2140   1.491       .  S
C968       C2320   1.487       .  S
O969       Ni977   1.914   1_545  S
O969        C979   1.281       .  A
O970       Ni977   1.915       .  S
O970        C980   1.280       .  A
O971       Ni977   1.926       .  S
O971        C981   1.283       .  A
O972       Ni977   1.924   1_545  S
O972        C982   1.284       .  A
O973       Ni978   1.912   1_545  S
O973        C982   1.280       .  A
O974       Ni978   1.911       .  S
O974        C981   1.281       .  A
O975       Ni978   1.919       .  S
O975        C980   1.283       .  A
O976       Ni978   1.921   1_545  S
O976        C979   1.282       .  A
Ni977      Ni978   2.383       .  S
C979       C2272   1.488       .  S
C980       C2485   1.486       .  S
C981       C2344   1.489       .  S
C982       C2416   1.488       .  S
O983       Ni991   1.912       .  S
O983        C993   1.281       .  A
O984       Ni991   1.919       .  S
O984        C994   1.282       .  A
O985       Ni991   1.926       .  S
O985        C995   1.283       .  A
O986       Ni991   1.930       .  S
O986        C996   1.284       .  A
O987       Ni992   1.916       .  S
O987        C996   1.280       .  A
O988       Ni992   1.913       .  S
O988        C995   1.281       .  A
O989       Ni992   1.918       .  S
O989        C994   1.282       .  A
O990       Ni992   1.923       .  S
O990        C993   1.282       .  A
Ni991      Ni992   2.383       .  S
C993       C2497   1.488       .  S
C994       C2536   1.491       .  S
C995       C2464   1.490       .  S
C996       C2572   1.482       .  S
O997      Ni1005   1.922   1_655  S
O997       C1007   1.281       .  A
O998      Ni1005   1.916       .  S
O998       C1008   1.281       .  A
O999      Ni1005   1.920       .  S
O999       C1009   1.281       .  A
O1000     Ni1005   1.917   1_655  S
O1000      C1010   1.281       .  A
O1001     Ni1006   1.925   1_655  S
O1001      C1010   1.284       .  A
O1002     Ni1006   1.920       .  S
O1002      C1009   1.281       .  A
O1003     Ni1006   1.918       .  S
O1003      C1008   1.282       .  A
O1004     Ni1006   1.913   1_655  S
O1004      C1007   1.279       .  A
Ni1005    Ni1006   2.388       .  S
C1007      C2632   1.468       .  S
C1008      C1228   1.484       .  S
C1009      C2557   1.472       .  S
C1010      C1300   1.493       .  S
O1011     Ni1019   1.924       .  S
O1011      C1021   1.283       .  A
O1012     Ni1019   1.926       .  S
O1012      C1022   1.283       .  A
O1013     Ni1019   1.923       .  S
O1013      C1023   1.282       .  A
O1014     Ni1019   1.924       .  S
O1014      C1024   1.282       .  A
O1015     Ni1020   1.921       .  S
O1015      C1024   1.283       .  A
O1016     Ni1020   1.920       .  S
O1016      C1023   1.283       .  A
O1017     Ni1020   1.915       .  S
O1017      C1022   1.280       .  A
O1018     Ni1020   1.914       .  S
O1018      C1021   1.280       .  A
Ni1019    Ni1020   2.384       .  S
C1021      C2644   1.480       .  S
C1022      C2752   1.482       .  S
C1023      C2608   1.492       .  S
C1024      C2788   1.494       .  S
O1025     Ni1033   1.916       .  S
O1025      C1035   1.281       .  A
O1026     Ni1033   1.920   1_545  S
O1026      C1036   1.282       .  A
O1027     Ni1033   1.925   1_545  S
O1027      C1037   1.282       .  A
O1028     Ni1033   1.922       .  S
O1028      C1038   1.282       .  A
O1029     Ni1034   1.914       .  S
O1029      C1038   1.281       .  A
O1030     Ni1034   1.917   1_545  S
O1030      C1037   1.281       .  A
O1031     Ni1034   1.920   1_545  S
O1031      C1036   1.282       .  A
O1032     Ni1034   1.927       .  S
O1032      C1035   1.283       .  A
Ni1033    Ni1034   2.383       .  S
C1035      C2776   1.493       .  S
C1036      C2236   1.490       .  S
C1037      C2701   1.480       .  S
C1038      C2308   1.488       .  S
O1039     Ni1047   1.918       .  S
O1039      C1049   1.281       .  A
O1040     Ni1047   1.916   1_455  S
O1040      C1050   1.280       .  A
O1041     Ni1047   1.932   1_455  S
O1041      C1051   1.286       .  A
O1042     Ni1047   1.927       .  S
O1042      C1052   1.283       .  A
O1043     Ni1048   1.917   1_655  S
O1043      C1052   1.281       .  A
O1044     Ni1048   1.915       .  S
O1044      C1051   1.280       .  A
O1045     Ni1048   1.932       .  S
O1045      C1050   1.284       .  A
O1046     Ni1048   1.927   1_655  S
O1046      C1049   1.284       .  A
Ni1047    Ni1048   2.384   1_655  S
C1049      C2596   1.493       .  S
C1050      C1516   1.482       .  S
C1051      C2524   1.495       .  S
C1052      C1588   1.481       .  S
O1053     Ni1061   1.927   1_565  S
O1053      C1063   1.284       .  A
O1054     Ni1061   1.923       .  S
O1054      C1064   1.282       .  A
O1055     Ni1061   1.919       .  S
O1055      C1065   1.282       .  A
O1056     Ni1061   1.916   1_565  S
O1056      C1066   1.280       .  A
O1057     Ni1062   1.920   1_565  S
O1057      C1066   1.281       .  A
O1058     Ni1062   1.918       .  S
O1058      C1065   1.282       .  A
O1059     Ni1062   1.927       .  S
O1059      C1064   1.283       .  A
O1060     Ni1062   1.924   1_565  S
O1060      C1063   1.283       .  A
Ni1061    Ni1062   2.386       .  S
C1063      C2017   1.494       .  S
C1064      C2665   1.483       .  S
C1065      C1948   1.489       .  S
C1066      C2740   1.469       .  S
O1067     Ni1075   1.925       .  S
O1067      C1077   1.283       .  A
O1068     Ni1075   1.927   1_554  S
O1068      C1078   1.283       .  A
O1069     Ni1075   1.919   1_554  S
O1069      C1079   1.282       .  A
O1070     Ni1075   1.923       .  S
O1070      C1080   1.282       .  A
O1071     Ni1076   1.919       .  S
O1071      C1080   1.283       .  A
O1072     Ni1076   1.924   1_554  S
O1072      C1079   1.283       .  A
O1073     Ni1076   1.918   1_554  S
O1073      C1078   1.280       .  A
O1074     Ni1076   1.915       .  S
O1074      C1077   1.281       .  A
Ni1075    Ni1076   2.383       .  S
C1077      C2164   1.491       .  S
C1078      C1372   1.479       .  S
C1079      C2092   1.493       .  S
C1080      C1444   1.492       .  S
C1081      C1082   1.401       .  A
C1081      C1086   1.407       .  A
C1082      C1083   1.400       .  A
C1082      H1087   1.084       .  S
C1083      C1084   1.414       .  A
C1083      O1088   1.371       .  S
C1084      C1085   1.407       .  A
C1085      C1086   1.402       .  A
C1085      H1089   1.083       .  S
C1086      O1090   1.372       .  S
O1088      H1092   0.992       .  S
O1090      H1091   0.992       .  S
C1093      C1094   1.407       .  A
C1093      C1098   1.415       .  A
C1094      C1095   1.400       .  A
C1094      H1099   1.083       .  S
C1095      C1096   1.405       .  A
C1095      O1100   1.372       .  S
C1096      C1097   1.402       .  A
C1097      C1098   1.402       .  A
C1097      H1101   1.083       .  S
C1098      O1102   1.372       .  S
O1100      H1104   0.993       .  S
O1102      H1103   0.992       .  S
C1105      C1106   1.399       .  A
C1105      C1110   1.405       .  A
C1106      C1107   1.397       .  A
C1106      H1111   1.083       .  S
C1107      C1108   1.409       .  A
C1107      O1112   1.373       .  S
C1108      C1109   1.404       .  A
C1109      C1110   1.399       .  A
C1109      H1113   1.084       .  S
C1110      O1114   1.371       .  S
O1112      H1116   0.991       .  S
O1114      H1115   0.992       .  S
C1117      C1118   1.408       .  A
C1117      C1122   1.414       .  A
C1118      C1119   1.400       .  A
C1118      H1123   1.083       .  S
C1119      C1120   1.407       .  A
C1119      O1124   1.372       .  S
C1120      C1121   1.402       .  A
C1121      C1122   1.399       .  A
C1121      H1125   1.082       .  S
C1122      O1126   1.371       .  S
O1124      H1128   0.992       .  S
O1126      H1127   0.992       .  S
C1129      C1130   1.400       .  A
C1129      C1134   1.404       .  A
C1130      C1131   1.399       .  A
C1130      H1135   1.083       .  S
C1131      C1132   1.413       .  A
C1131      O1136   1.372       .  S
C1132      C1133   1.409       .  A
C1133      C1134   1.399       .  A
C1133      H1137   1.083       .  S
C1134      O1138   1.372       .  S
O1136      H1140   0.992       .  S
O1138      H1139   0.992       .  S
C1141      C1142   1.405       .  A
C1141      C1146   1.410       .  A
C1142      C1143   1.396       .  A
C1142      H1147   1.084       .  S
C1143      C1144   1.402       .  A
C1143      O1148   1.371       .  S
C1144      C1145   1.402       .  A
C1145      C1146   1.399       .  A
C1145      H1149   1.083       .  S
C1146      O1150   1.372       .  S
O1148      H1152   0.991       .  S
O1150      H1151   0.992       .  S
C1153      C1154   1.408       .  A
C1153      C1158   1.415       .  A
C1154      C1155   1.405       .  A
C1154      H1159   1.083       .  S
C1155      C1156   1.408       .  A
C1155      O1160   1.372       .  S
C1156      C1157   1.401       .  A
C1157      C1158   1.400       .  A
C1157      H1161   1.084       .  S
C1158      O1162   1.371       .  S
O1160      H1164   0.992       .  S
O1162      H1163   0.992       .  S
C1165      C1166   1.401       .  A
C1165      C1170   1.411       .  A
C1166      C1167   1.399       .  A
C1166      H1171   1.084       .  S
C1167      C1168   1.413       .  A
C1167      O1172   1.371       .  S
C1168      C1169   1.407       .  A
C1169      C1170   1.402       .  A
C1169      H1173   1.083       .  S
C1170      O1174   1.370       .  S
O1172      H1176   0.992       .  S
O1174      H1175   0.992       .  S
C1177      C1178   1.400       .  A
C1177      C1182   1.404       .  A
C1178      C1179   1.395       .  A
C1178      H1183   1.083       .  S
C1179      C1180   1.409       .  A
C1179      O1184   1.372       .  S
C1180      C1181   1.404       .  A
C1181      C1182   1.397       .  A
C1181      H1185   1.084       .  S
C1182      O1186   1.371       .  S
O1184      H1188   0.991       .  S
O1186      H1187   0.993       .  S
C1189      C1190   1.400       .  A
C1189      C1194   1.407       .  A
C1190      C1191   1.399       .  A
C1190      H1195   1.084       .  S
C1191      C1192   1.415       .  A
C1191      O1196   1.371       .  S
C1192      C1193   1.408       .  A
C1193      C1194   1.400       .  A
C1193      H1197   1.083       .  S
C1194      O1198   1.371       .  S
O1196      H1200   0.992       .  S
O1198      H1199   0.991       .  S
C1201      C1202   1.403       .  A
C1201      C1206   1.407       .  A
C1202      C1203   1.402       .  A
C1202      H1207   1.082       .  S
C1203      C1204   1.414       .  A
C1203      O1208   1.371       .  S
C1204      C1205   1.407       .  A
C1205      C1206   1.400       .  A
C1205      H1209   1.083       .  S
C1206      O1210   1.372       .  S
O1208      H1212   0.992       .  S
O1210      H1211   0.992       .  S
C1213      C1214   1.399       .  A
C1213      C1218   1.404       .  A
C1214      C1215   1.399       .  A
C1214      H1219   1.083       .  S
C1215      C1216   1.410       .  A
C1215      O1220   1.373       .  S
C1216      C1217   1.404       .  A
C1217      C1218   1.399       .  A
C1217      H1221   1.084       .  S
C1218      O1222   1.371       .  S
O1220      H1224   0.992       .  S
O1222      H1223   0.992       .  S
C1225      C1226   1.401       .  A
C1225      C1230   1.405       .  A
C1226      C1227   1.398       .  A
C1226      H1231   1.083       .  S
C1227      C1228   1.413       .  A
C1227      O1232   1.372       .  S
C1228      C1229   1.407       .  A
C1229      C1230   1.401       .  A
C1229      H1233   1.083       .  S
C1230      O1234   1.371       .  S
O1232      H1236   0.992       .  S
O1234      H1235   0.992       .  S
C1237      C1238   1.406       .  A
C1237      C1242   1.415       .  A
C1238      C1239   1.402       .  A
C1238      H1243   1.083       .  S
C1239      C1240   1.408       .  A
C1239      O1244   1.372       .  S
C1240      C1241   1.401       .  A
C1241      C1242   1.401       .  A
C1241      H1245   1.082       .  S
C1242      O1246   1.372       .  S
O1244      H1248   0.992       .  S
O1246      H1247   0.991       .  S
C1249      C1250   1.406       .  A
C1249      C1254   1.410       .  A
C1250      C1251   1.401       .  A
C1250      H1255   1.083       .  S
C1251      C1252   1.404       .  A
C1251      O1256   1.371       .  S
C1252      C1253   1.399       .  A
C1253      C1254   1.398       .  A
C1253      H1257   1.083       .  S
C1254      O1258   1.373       .  S
O1256      H1260   0.992       .  S
O1258      H1259   0.992       .  S
C1261      C1262   1.400       .  A
C1261      C1266   1.406       .  A
C1262      C1263   1.400       .  A
C1262      H1267   1.084       .  S
C1263      C1264   1.415       .  A
C1263      O1268   1.371       .  S
C1264      C1265   1.408       .  A
C1265      C1266   1.401       .  A
C1265      H1269   1.083       .  S
C1266      O1270   1.371       .  S
O1268      H1272   0.992       .  S
O1270      H1271   0.991       .  S
C1273      C1274   1.410       .  A
C1273      C1278   1.415       .  A
C1274      C1275   1.404       .  A
C1274      H1279   1.083       .  S
C1275      C1276   1.407       .  A
C1275      O1280   1.371       .  S
C1276      C1277   1.400       .  A
C1277      C1278   1.398       .  A
C1277      H1281   1.081       .  S
C1278      O1282   1.371       .  S
O1280      H1284   0.992       .  S
O1282      H1283   0.992       .  S
C1285      C1286   1.399       .  A
C1285      C1290   1.404       .  A
C1286      C1287   1.396       .  A
C1286      H1291   1.083       .  S
C1287      C1288   1.409       .  A
C1287      O1292   1.372       .  S
C1288      C1289   1.405       .  A
C1289      C1290   1.399       .  A
C1289      H1293   1.083       .  S
C1290      O1294   1.371       .  S
O1292      H1296   0.992       .  S
O1294      H1295   0.991       .  S
C1297      C1298   1.404       .  A
C1297      C1302   1.410       .  A
C1298      C1299   1.401       .  A
C1298      H1303   1.080       .  S
C1299      C1300   1.414       .  A
C1299      O1304   1.372       .  S
C1300      C1301   1.408       .  A
C1301      C1302   1.403       .  A
C1301      H1305   1.083       .  S
C1302      O1306   1.372       .  S
O1304      H1308   0.992       .  S
O1306      H1307   0.991       .  S
C1309      C1310   1.401       .  A
C1309      C1314   1.408       .  A
C1310      C1311   1.401       .  A
C1310      H1315   1.084       .  S
C1311      C1312   1.415       .  A
C1311      O1316   1.371       .  S
C1312      C1313   1.409       .  A
C1313      C1314   1.404       .  A
C1313      H1317   1.083       .  S
C1314      O1318   1.371       .  S
O1316      H1320   0.992       .  S
O1318      H1319   0.992       .  S
C1321      C1322   1.404       .  A
C1321      C1326   1.409       .  A
C1322      C1323   1.398       .  A
C1322      H1327   1.084       .  S
C1323      C1324   1.405       .  A
C1323      O1328   1.371       .  S
C1324      C1325   1.400       .  A
C1325      C1326   1.396       .  A
C1325      H1329   1.083       .  S
C1326      O1330   1.372       .  S
O1328      H1332   0.992       .  S
O1330      H1331   0.991       .  S
C1333      C1334   1.403       .  A
C1333      C1338   1.406       .  A
C1334      C1335   1.402       .  A
C1334      H1339   1.083       .  S
C1335      C1336   1.414       .  A
C1335      O1340   1.371       .  S
C1336      C1337   1.406       .  A
C1337      C1338   1.399       .  A
C1337      H1341   1.083       .  S
C1338      O1342   1.371       .  S
O1340      H1344   0.992       .  S
O1342      H1343   0.992       .  S
C1345      C1346   1.402       .  A
C1345      C1350   1.406       .  A
C1346      C1347   1.402       .  A
C1346      H1351   1.083       .  S
C1347      C1348   1.415       .  A
C1347      O1352   1.371       .  S
C1348      C1349   1.409       .  A
C1349      C1350   1.402       .  A
C1349      H1353   1.083       .  S
C1350      O1354   1.372       .  S
O1352      H1356   0.992       .  S
O1354      H1355   0.992       .  S
C1357      C1358   1.401       .  A
C1357      C1362   1.404       .  A
C1358      C1359   1.397       .  A
C1358      H1363   1.083       .  S
C1359      C1360   1.408       .  A
C1359      O1364   1.371       .  S
C1360      C1361   1.404       .  A
C1361      C1362   1.396       .  A
C1361      H1365   1.084       .  S
C1362      O1366   1.371       .  S
O1364      H1368   0.991       .  S
O1366      H1367   0.991       .  S
C1369      C1370   1.404       .  A
C1369      C1374   1.408       .  A
C1370      C1371   1.402       .  A
C1370      H1375   1.084       .  S
C1371      C1372   1.407       .  A
C1371      O1376   1.372       .  S
C1372      C1373   1.405       .  A
C1373      C1374   1.406       .  A
C1373      H1377   1.084       .  S
C1374      O1378   1.371       .  S
O1376      H1380   0.992       .  S
O1378      H1379   0.992       .  S
C1381      C1382   1.401       .  A
C1381      C1386   1.406       .  A
C1382      C1383   1.404       .  A
C1382      H1387   1.083       .  S
C1383      C1384   1.413       .  A
C1383      O1388   1.371       .  S
C1384      C1385   1.406       .  A
C1385      C1386   1.402       .  A
C1385      H1389   1.083       .  S
C1386      O1390   1.371       .  S
O1388      H1392   0.992       .  S
O1390      H1391   0.992       .  S
C1393      C1394   1.404       .  A
C1393      C1398   1.405       .  A
C1394      C1395   1.400       .  A
C1394      H1399   1.082       .  S
C1395      C1396   1.405       .  A
C1395      O1400   1.371       .  S
C1396      C1397   1.402       .  A
C1397      C1398   1.396       .  A
C1397      H1401   1.084       .  S
C1398      O1402   1.372       .  S
O1400      H1404   0.992       .  S
O1402      H1403   0.992       .  S
C1405      C1406   1.407       .  A
C1405      C1410   1.411       .  A
C1406      C1407   1.405       .  A
C1406      H1411   1.084       .  S
C1407      C1408   1.406       .  A
C1407      O1412   1.372       .  S
C1408      C1409   1.402       .  A
C1409      C1410   1.403       .  A
C1409      H1413   1.084       .  S
C1410      O1414   1.371       .  S
O1412      H1416   0.991       .  S
O1414      H1415   0.992       .  S
C1417      C1418   1.404       .  A
C1417      C1422   1.408       .  A
C1418      C1419   1.406       .  A
C1418      H1423   1.084       .  S
C1419      C1420   1.409       .  A
C1419      O1424   1.371       .  S
C1420      C1421   1.403       .  A
C1421      C1422   1.403       .  A
C1421      H1425   1.084       .  S
C1422      O1426   1.372       .  S
O1424      H1428   0.992       .  S
O1426      H1427   0.991       .  S
C1429      C1430   1.402       .  A
C1429      C1434   1.406       .  A
C1430      C1431   1.396       .  A
C1430      H1435   1.081       .  S
C1431      C1432   1.404       .  A
C1431      O1436   1.372       .  S
C1432      C1433   1.399       .  A
C1433      C1434   1.394       .  A
C1433      H1437   1.084       .  S
C1434      O1438   1.370       .  S
O1436      H1440   0.992       .  S
O1438      H1439   0.991       .  S
C1441      C1442   1.403       .  A
C1441      C1446   1.407       .  A
C1442      C1443   1.406       .  A
C1442      H1447   1.084       .  S
C1443      C1444   1.416       .  A
C1443      O1448   1.371       .  S
C1444      C1445   1.407       .  A
C1445      C1446   1.398       .  A
C1445      H1449   1.083       .  S
C1446      O1450   1.372       .  S
O1448      H1452   0.992       .  S
O1450      H1451   0.992       .  S
C1453      C1454   1.402       .  A
C1453      C1458   1.409       .  A
C1454      C1455   1.396       .  A
C1454      H1459   1.084       .  S
C1455      C1456   1.414       .  A
C1455      O1460   1.372       .  S
C1456      C1457   1.410       .  A
C1457      C1458   1.410       .  A
C1457      H1461   1.083       .  S
C1458      O1462   1.373       .  S
O1460      H1464   0.991       .  S
O1462      H1463   0.992       .  S
C1465      C1466   1.407       .  A
C1465      C1470   1.412       .  A
C1466      C1467   1.399       .  A
C1466      H1471   1.078       .  S
C1467      C1468   1.411       .  A
C1467      O1472   1.376       .  S
C1468      C1469   1.407       .  A
C1469      C1470   1.395       .  A
C1469      H1473   1.082       .  S
C1470      O1474   1.369       .  S
O1472      H1476   0.993       .  S
O1474      H1475   0.991       .  S
C1477      C1478   1.407       .  A
C1477      C1482   1.410       .  A
C1478      C1479   1.404       .  A
C1478      H1483   1.083       .  S
C1479      C1480   1.406       .  A
C1479      O1484   1.371       .  S
C1480      C1481   1.401       .  A
C1481      C1482   1.401       .  A
C1481      H1485   1.082       .  S
C1482      O1486   1.372       .  S
O1484      H1488   0.991       .  S
O1486      H1487   0.992       .  S
C1489      C1490   1.404       .  A
C1489      C1494   1.411       .  A
C1490      C1491   1.400       .  A
C1490      H1495   1.084       .  S
C1491      C1492   1.407       .  A
C1491      O1496   1.371       .  S
C1492      C1493   1.402       .  A
C1493      C1494   1.404       .  A
C1493      H1497   1.084       .  S
C1494      O1498   1.372       .  S
O1496      H1500   0.992       .  S
O1498      H1499   0.991       .  S
C1501      C1502   1.401       .  A
C1501      C1506   1.405       .  A
C1502      C1503   1.402       .  A
C1502      H1507   1.083       .  S
C1503      C1504   1.411       .  A
C1503      O1508   1.371       .  S
C1504      C1505   1.401       .  A
C1505      C1506   1.394       .  A
C1505      H1509   1.082       .  S
C1506      O1510   1.372       .  S
O1508      H1512   0.991       .  S
O1510      H1511   0.992       .  S
C1513      C1514   1.403       .  A
C1513      C1518   1.408       .  A
C1514      C1515   1.404       .  A
C1514      H1519   1.083       .  S
C1515      C1516   1.409       .  A
C1515      O1520   1.372       .  S
C1516      C1517   1.405       .  A
C1517      C1518   1.405       .  A
C1517      H1521   1.084       .  S
C1518      O1522   1.372       .  S
O1520      H1524   0.992       .  S
O1522      H1523   0.992       .  S
C1525      C1526   1.404       .  A
C1525      C1530   1.408       .  A
C1526      C1527   1.405       .  A
C1526      H1531   1.084       .  S
C1527      C1528   1.410       .  A
C1527      O1532   1.372       .  S
C1528      C1529   1.403       .  A
C1529      C1530   1.403       .  A
C1529      H1533   1.084       .  S
C1530      O1534   1.371       .  S
O1532      H1536   0.992       .  S
O1534      H1535   0.991       .  S
C1537      C1538   1.400       .  A
C1537      C1542   1.404       .  A
C1538      C1539   1.399       .  A
C1538      H1543   1.084       .  S
C1539      C1540   1.406       .  A
C1539      O1544   1.372       .  S
C1540      C1541   1.401       .  A
C1541      C1542   1.395       .  A
C1541      H1545   1.083       .  S
C1542      O1546   1.371       .  S
O1544      H1548   0.992       .  S
O1546      H1547   0.992       .  S
C1549      C1550   1.404       .  A
C1549      C1554   1.407       .  A
C1550      C1551   1.404       .  A
C1550      H1555   1.084       .  S
C1551      C1552   1.410       .  A
C1551      O1556   1.372       .  S
C1552      C1553   1.406       .  A
C1553      C1554   1.405       .  A
C1553      H1557   1.083       .  S
C1554      O1558   1.371       .  S
O1556      H1560   0.991       .  S
O1558      H1559   0.991       .  S
C1561      C1562   1.404       .  A
C1561      C1566   1.407       .  A
C1562      C1563   1.405       .  A
C1562      H1567   1.084       .  S
C1563      C1564   1.411       .  A
C1563      O1568   1.372       .  S
C1564      C1565   1.404       .  A
C1565      C1566   1.404       .  A
C1565      H1569   1.084       .  S
C1566      O1570   1.371       .  S
O1568      H1572   0.992       .  S
O1570      H1571   0.992       .  S
C1573      C1574   1.400       .  A
C1573      C1578   1.405       .  A
C1574      C1575   1.399       .  A
C1574      H1579   1.083       .  S
C1575      C1576   1.410       .  A
C1575      O1580   1.370       .  S
C1576      C1577   1.401       .  A
C1577      C1578   1.393       .  A
C1577      H1581   1.082       .  S
C1578      O1582   1.372       .  S
O1580      H1584   0.991       .  S
O1582      H1583   0.991       .  S
C1585      C1586   1.403       .  A
C1585      C1590   1.405       .  A
C1586      C1587   1.404       .  A
C1586      H1591   1.084       .  S
C1587      C1588   1.409       .  A
C1587      O1592   1.371       .  S
C1588      C1589   1.406       .  A
C1589      C1590   1.402       .  A
C1589      H1593   1.084       .  S
C1590      O1594   1.372       .  S
O1592      H1596   0.992       .  S
O1594      H1595   0.992       .  S
C1597      C1598   1.401       .  A
C1597      C1602   1.406       .  A
C1598      C1599   1.399       .  A
C1598      H1603   1.084       .  S
C1599      C1600   1.410       .  A
C1599      O1604   1.372       .  S
C1600      C1601   1.406       .  A
C1601      C1602   1.405       .  A
C1601      H1605   1.083       .  S
C1602      O1606   1.371       .  S
O1604      H1608   0.992       .  S
O1606      H1607   0.992       .  S
C1609      C1610   1.401       .  A
C1609      C1614   1.409       .  A
C1610      C1611   1.399       .  A
C1610      H1615   1.082       .  S
C1611      C1612   1.408       .  A
C1611      O1616   1.372       .  S
C1612      C1613   1.400       .  A
C1613      C1614   1.400       .  A
C1613      H1617   1.083       .  S
C1614      O1618   1.370       .  S
O1616      H1620   0.992       .  S
O1618      H1619   0.992       .  S
C1621      C1622   1.404       .  A
C1621      C1626   1.405       .  A
C1622      C1623   1.405       .  A
C1622      H1627   1.084       .  S
C1623      C1624   1.415       .  A
C1623      O1628   1.371       .  S
C1624      C1625   1.407       .  A
C1625      C1626   1.396       .  A
C1625      H1629   1.083       .  S
C1626      O1630   1.372       .  S
O1628      H1632   0.992       .  S
O1630      H1631   0.992       .  S
C1633      C1634   1.405       .  A
C1633      C1638   1.406       .  A
C1634      C1635   1.408       .  A
C1634      H1639   1.083       .  S
C1635      C1636   1.416       .  A
C1635      O1640   1.371       .  S
C1636      C1637   1.407       .  A
C1637      C1638   1.396       .  A
C1637      H1641   1.083       .  S
C1638      O1642   1.372       .  S
O1640      H1644   0.992       .  S
O1642      H1643   0.992       .  S
C1645      C1646   1.406       .  A
C1645      C1650   1.408       .  A
C1646      C1647   1.402       .  A
C1646      H1651   1.080       .  S
C1647      C1648   1.416       .  A
C1647      O1652   1.376       .  S
C1648      C1649   1.407       .  A
C1649      C1650   1.393       .  A
C1649      H1653   1.081       .  S
C1650      O1654   1.369       .  S
O1652      H1656   0.993       .  S
O1654      H1655   0.992       .  S
C1657      C1658   1.406       .  A
C1657      C1662   1.412       .  A
C1658      C1659   1.397       .  A
C1658      H1663   1.083       .  S
C1659      C1660   1.403       .  A
C1659      O1664   1.372       .  S
C1660      C1661   1.401       .  A
C1661      C1662   1.400       .  A
C1661      H1665   1.083       .  S
C1662      O1666   1.372       .  S
O1664      H1668   0.992       .  S
O1666      H1667   0.992       .  S
C1669      C1670   1.403       .  A
C1669      C1674   1.409       .  A
C1670      C1671   1.398       .  A
C1670      H1675   1.084       .  S
C1671      C1672   1.407       .  A
C1671      O1676   1.372       .  S
C1672      C1673   1.403       .  A
C1673      C1674   1.401       .  A
C1673      H1677   1.084       .  S
C1674      O1678   1.372       .  S
O1676      H1680   0.992       .  S
O1678      H1679   0.991       .  S
C1681      C1682   1.402       .  A
C1681      C1686   1.406       .  A
C1682      C1683   1.397       .  A
C1682      H1687   1.084       .  S
C1683      C1684   1.405       .  A
C1683      O1688   1.371       .  S
C1684      C1685   1.402       .  A
C1685      C1686   1.400       .  A
C1685      H1689   1.082       .  S
C1686      O1690   1.371       .  S
O1688      H1692   0.991       .  S
O1690      H1691   0.991       .  S
C1693      C1694   1.402       .  A
C1693      C1698   1.407       .  A
C1694      C1695   1.403       .  A
C1694      H1699   1.084       .  S
C1695      C1696   1.408       .  A
C1695      O1700   1.372       .  S
C1696      C1697   1.401       .  A
C1697      C1698   1.398       .  A
C1697      H1701   1.084       .  S
C1698      O1702   1.372       .  S
O1700      H1704   0.991       .  S
O1702      H1703   0.991       .  S
C1705      C1706   1.404       .  A
C1705      C1710   1.405       .  A
C1706      C1707   1.402       .  A
C1706      H1711   1.084       .  S
C1707      C1708   1.408       .  A
C1707      O1712   1.372       .  S
C1708      C1709   1.403       .  A
C1709      C1710   1.399       .  A
C1709      H1713   1.084       .  S
C1710      O1714   1.372       .  S
O1712      H1716   0.991       .  S
O1714      H1715   0.991       .  S
C1717      C1718   1.400       .  A
C1717      C1722   1.404       .  A
C1718      C1719   1.397       .  A
C1718      H1723   1.084       .  S
C1719      C1720   1.406       .  A
C1719      O1724   1.372       .  S
C1720      C1721   1.406       .  A
C1721      C1722   1.398       .  A
C1721      H1725   1.083       .  S
C1722      O1726   1.372       .  S
O1724      H1728   0.992       .  S
O1726      H1727   0.992       .  S
C1729      C1730   1.399       .  A
C1729      C1734   1.408       .  A
C1730      C1731   1.400       .  A
C1730      H1735   1.082       .  S
C1731      C1732   1.417       .  A
C1731      O1736   1.372       .  S
C1732      C1733   1.406       .  A
C1733      C1734   1.402       .  A
C1733      H1737   1.083       .  S
C1734      O1738   1.371       .  S
O1736      H1740   0.992       .  S
O1738      H1739   0.992       .  S
C1741      C1742   1.402       .  A
C1741      C1746   1.406       .  A
C1742      C1743   1.400       .  A
C1742      H1747   1.084       .  S
C1743      C1744   1.410       .  A
C1743      O1748   1.371       .  S
C1744      C1745   1.408       .  A
C1745      C1746   1.406       .  A
C1745      H1749   1.083       .  S
C1746      O1750   1.371       .  S
O1748      H1752   0.992       .  S
O1750      H1751   0.992       .  S
C1753      C1754   1.403       .  A
C1753      C1758   1.403       .  A
C1754      C1755   1.400       .  A
C1754      H1759   1.082       .  S
C1755      C1756   1.406       .  A
C1755      O1760   1.371       .  S
C1756      C1757   1.403       .  A
C1757      C1758   1.397       .  A
C1757      H1761   1.084       .  S
C1758      O1762   1.372       .  S
O1760      H1764   0.992       .  S
O1762      H1763   0.992       .  S
C1765      C1766   1.399       .  A
C1765      C1770   1.407       .  A
C1766      C1767   1.396       .  A
C1766      H1771   1.084       .  S
C1767      C1768   1.415       .  A
C1767      O1772   1.372       .  S
C1768      C1769   1.410       .  A
C1769      C1770   1.407       .  A
C1769      H1773   1.083       .  S
C1770      O1774   1.372       .  S
O1772      H1776   0.992       .  S
O1774      H1775   0.991       .  S
C1777      C1778   1.410       .  A
C1777      C1782   1.415       .  A
C1778      C1779   1.408       .  A
C1778      H1783   1.083       .  S
C1779      C1780   1.410       .  A
C1779      O1784   1.371       .  S
C1780      C1781   1.400       .  A
C1781      C1782   1.396       .  A
C1781      H1785   1.084       .  S
C1782      O1786   1.372       .  S
O1784      H1788   0.991       .  S
O1786      H1787   0.992       .  S
C1789      C1790   1.407       .  A
C1789      C1794   1.416       .  A
C1790      C1791   1.394       .  A
C1790      H1795   1.081       .  S
C1791      C1792   1.410       .  A
C1791      O1796   1.370       .  S
C1792      C1793   1.406       .  A
C1793      C1794   1.402       .  A
C1793      H1797   1.079       .  S
C1794      O1798   1.376       .  S
O1796      H1800   0.992       .  S
O1798      H1799   0.992       .  S
C1801      C1802   1.408       .  A
C1801      C1806   1.416       .  A
C1802      C1803   1.404       .  A
C1802      H1807   1.083       .  S
C1803      C1804   1.411       .  A
C1803      O1808   1.372       .  S
C1804      C1805   1.402       .  A
C1805      C1806   1.404       .  A
C1805      H1809   1.083       .  S
C1806      O1810   1.371       .  S
O1808      H1812   0.992       .  S
O1810      H1811   0.992       .  S
C1813      C1814   1.409       .  A
C1813      C1818   1.417       .  A
C1814      C1815   1.402       .  A
C1814      H1819   1.083       .  S
C1815      C1816   1.409       .  A
C1815      O1820   1.372       .  S
C1816      C1817   1.404       .  A
C1817      C1818   1.409       .  A
C1817      H1821   1.083       .  S
C1818      O1822   1.371       .  S
O1820      H1824   0.992       .  S
O1822      H1823   0.992       .  S
C1825      C1826   1.405       .  A
C1825      C1830   1.411       .  A
C1826      C1827   1.399       .  A
C1826      H1831   1.078       .  S
C1827      C1828   1.412       .  A
C1827      O1832   1.377       .  S
C1828      C1829   1.409       .  A
C1829      C1830   1.405       .  A
C1829      H1833   1.080       .  S
C1830      O1834   1.374       .  S
O1832      H1836   0.993       .  S
O1834      H1835   0.992       .  S
C1837      C1838   1.401       .  A
C1837      C1842   1.409       .  A
C1838      C1839   1.398       .  A
C1838      H1843   1.084       .  S
C1839      C1840   1.416       .  A
C1839      O1844   1.372       .  S
C1840      C1841   1.411       .  A
C1841      C1842   1.407       .  A
C1841      H1845   1.083       .  S
C1842      O1846   1.371       .  S
O1844      H1848   0.992       .  S
O1846      H1847   0.992       .  S
C1849      C1850   1.400       .  A
C1849      C1854   1.407       .  A
C1850      C1851   1.399       .  A
C1850      H1855   1.084       .  S
C1851      C1852   1.415       .  A
C1851      O1856   1.372       .  S
C1852      C1853   1.409       .  A
C1853      C1854   1.405       .  A
C1853      H1857   1.083       .  S
C1854      O1858   1.372       .  S
O1856      H1860   0.992       .  S
O1858      H1859   0.992       .  S
C1861      C1862   1.406       .  A
C1861      C1866   1.416       .  A
C1862      C1863   1.398       .  A
C1862      H1867   1.081       .  S
C1863      C1864   1.407       .  A
C1863      O1868   1.375       .  S
C1864      C1865   1.407       .  A
C1865      C1866   1.401       .  A
C1865      H1869   1.080       .  S
C1866      O1870   1.374       .  S
O1868      H1872   0.992       .  S
O1870      H1871   0.992       .  S
C1873      C1874   1.402       .  A
C1873      C1878   1.405       .  A
C1874      C1875   1.402       .  A
C1874      H1879   1.084       .  S
C1875      C1876   1.409       .  A
C1875      O1880   1.372       .  S
C1876      C1877   1.405       .  A
C1877      C1878   1.404       .  A
C1877      H1881   1.083       .  S
C1878      O1882   1.371       .  S
O1880      H1884   0.991       .  S
O1882      H1883   0.991       .  S
C1885      C1886   1.401       .  A
C1885      C1890   1.404       .  A
C1886      C1887   1.400       .  A
C1886      H1891   1.084       .  S
C1887      C1888   1.410       .  A
C1887      O1892   1.372       .  S
C1888      C1889   1.406       .  A
C1889      C1890   1.402       .  A
C1889      H1893   1.084       .  S
C1890      O1894   1.372       .  S
O1892      H1896   0.991       .  S
O1894      H1895   0.992       .  S
C1897      C1898   1.404       .  A
C1897      C1902   1.404       .  A
C1898      C1899   1.399       .  A
C1898      H1903   1.082       .  S
C1899      C1900   1.404       .  A
C1899      O1904   1.371       .  S
C1900      C1901   1.402       .  A
C1901      C1902   1.398       .  A
C1901      H1905   1.084       .  S
C1902      O1906   1.372       .  S
O1904      H1908   0.992       .  S
O1906      H1907   0.992       .  S
C1909      C1910   1.402       .  A
C1909      C1914   1.408       .  A
C1910      C1911   1.399       .  A
C1910      H1915   1.084       .  S
C1911      C1912   1.409       .  A
C1911      O1916   1.372       .  S
C1912      C1913   1.402       .  A
C1913      C1914   1.403       .  A
C1913      H1917   1.083       .  S
C1914      O1918   1.372       .  S
O1916      H1920   0.992       .  S
O1918      H1919   0.992       .  S
C1921      C1922   1.401       .  A
C1921      C1926   1.405       .  A
C1922      C1923   1.401       .  A
C1922      H1927   1.084       .  S
C1923      C1924   1.411       .  A
C1923      O1928   1.372       .  S
C1924      C1925   1.406       .  A
C1925      C1926   1.403       .  A
C1925      H1929   1.084       .  S
C1926      O1930   1.372       .  S
O1928      H1932   0.992       .  S
O1930      H1931   0.992       .  S
C1933      C1934   1.401       .  A
C1933      C1938   1.404       .  A
C1934      C1935   1.397       .  A
C1934      H1939   1.084       .  S
C1935      C1936   1.409       .  A
C1935      O1940   1.371       .  S
C1936      C1937   1.404       .  A
C1937      C1938   1.399       .  A
C1937      H1941   1.081       .  S
C1938      O1942   1.371       .  S
O1940      H1944   0.992       .  S
O1942      H1943   0.991       .  S
C1945      C1946   1.403       .  A
C1945      C1950   1.407       .  A
C1946      C1947   1.400       .  A
C1946      H1951   1.084       .  S
C1947      C1948   1.413       .  A
C1947      O1952   1.372       .  S
C1948      C1949   1.408       .  A
C1949      C1950   1.403       .  A
C1949      H1953   1.083       .  S
C1950      O1954   1.372       .  S
O1952      H1956   0.992       .  S
O1954      H1955   0.992       .  S
C1957      C1958   1.402       .  A
C1957      C1962   1.409       .  A
C1958      C1959   1.399       .  A
C1958      H1963   1.083       .  S
C1959      C1960   1.415       .  A
C1959      O1964   1.371       .  S
C1960      C1961   1.407       .  A
C1961      C1962   1.402       .  A
C1961      H1965   1.083       .  S
C1962      O1966   1.372       .  S
O1964      H1968   0.992       .  S
O1966      H1967   0.992       .  S
C1969      C1970   1.408       .  A
C1969      C1974   1.410       .  A
C1970      C1971   1.403       .  A
C1970      H1975   1.084       .  S
C1971      C1972   1.405       .  A
C1971      O1976   1.371       .  S
C1972      C1973   1.401       .  A
C1973      C1974   1.400       .  A
C1973      H1977   1.083       .  S
C1974      O1978   1.372       .  S
O1976      H1980   0.992       .  S
O1978      H1979   0.992       .  S
C1981      C1982   1.409       .  A
C1981      C1986   1.414       .  A
C1982      C1983   1.404       .  A
C1982      H1987   1.083       .  S
C1983      C1984   1.405       .  A
C1983      O1988   1.372       .  S
C1984      C1985   1.400       .  A
C1985      C1986   1.400       .  A
C1985      H1989   1.084       .  S
C1986      O1990   1.371       .  S
O1988      H1992   0.992       .  S
O1990      H1991   0.992       .  S
C1993      C1994   1.404       .  A
C1993      C1998   1.406       .  A
C1994      C1995   1.404       .  A
C1994      H1999   1.084       .  S
C1995      C1996   1.414       .  A
C1995      O2000   1.371       .  S
C1996      C1997   1.405       .  A
C1997      C1998   1.397       .  A
C1997      H2001   1.083       .  S
C1998      O2002   1.373       .  S
O2000      H2004   0.992       .  S
O2002      H2003   0.993       .  S
C2005      C2006   1.400       .  A
C2005      C2010   1.405       .  A
C2006      C2007   1.396       .  A
C2006      H2011   1.083       .  S
C2007      C2008   1.407       .  A
C2007      O2012   1.372       .  S
C2008      C2009   1.405       .  A
C2009      C2010   1.399       .  A
C2009      H2013   1.084       .  S
C2010      O2014   1.371       .  S
O2012      H2016   0.992       .  S
O2014      H2015   0.992       .  S
C2017      C2018   1.409       .  A
C2017      C2022   1.415       .  A
C2018      C2019   1.405       .  A
C2018      H2023   1.083       .  S
C2019      C2020   1.406       .  A
C2019      O2024   1.372       .  S
C2020      C2021   1.401       .  A
C2021      C2022   1.403       .  A
C2021      H2025   1.084       .  S
C2022      O2026   1.371       .  S
O2024      H2028   0.992       .  S
O2026      H2027   0.992       .  S
C2029      C2030   1.407       .  A
C2029      C2034   1.410       .  A
C2030      C2031   1.407       .  A
C2030      H2035   1.082       .  S
C2031      C2032   1.412       .  A
C2031      O2036   1.372       .  S
C2032      C2033   1.405       .  A
C2033      C2034   1.399       .  A
C2033      H2037   1.084       .  S
C2034      O2038   1.372       .  S
O2036      H2040   0.992       .  S
O2038      H2039   0.992       .  S
C2041      C2042   1.400       .  A
C2041      C2046   1.404       .  A
C2042      C2043   1.399       .  A
C2042      H2047   1.083       .  S
C2043      C2044   1.412       .  A
C2043      O2048   1.371       .  S
C2044      C2045   1.405       .  A
C2045      C2046   1.395       .  A
C2045      H2049   1.084       .  S
C2046      O2050   1.371       .  S
O2048      H2052   0.992       .  S
O2050      H2051   0.992       .  S
C2053      C2054   1.402       .  A
C2053      C2058   1.405       .  A
C2054      C2055   1.400       .  A
C2054      H2059   1.083       .  S
C2055      C2056   1.413       .  A
C2055      O2060   1.372       .  S
C2056      C2057   1.407       .  A
C2057      C2058   1.396       .  A
C2057      H2061   1.083       .  S
C2058      O2062   1.372       .  S
O2060      H2064   0.992       .  S
O2062      H2063   0.992       .  S
C2065      C2066   1.406       .  A
C2065      C2070   1.413       .  A
C2066      C2067   1.394       .  A
C2066      H2071   1.083       .  S
C2067      C2068   1.404       .  A
C2067      O2072   1.371       .  S
C2068      C2069   1.403       .  A
C2069      C2070   1.400       .  A
C2069      H2073   1.083       .  S
C2070      O2074   1.372       .  S
O2072      H2076   0.992       .  S
O2074      H2075   0.992       .  S
C2077      C2078   1.400       .  A
C2077      C2082   1.404       .  A
C2078      C2079   1.399       .  A
C2078      H2083   1.083       .  S
C2079      C2080   1.407       .  A
C2079      O2084   1.372       .  S
C2080      C2081   1.406       .  A
C2081      C2082   1.399       .  A
C2081      H2085   1.084       .  S
C2082      O2086   1.371       .  S
O2084      H2088   0.992       .  S
O2086      H2087   0.992       .  S
C2089      C2090   1.402       .  A
C2089      C2094   1.406       .  A
C2090      C2091   1.402       .  A
C2090      H2095   1.084       .  S
C2091      C2092   1.414       .  A
C2091      O2096   1.371       .  S
C2092      C2093   1.409       .  A
C2093      C2094   1.403       .  A
C2093      H2097   1.083       .  S
C2094      O2098   1.372       .  S
O2096      H2100   0.992       .  S
O2098      H2099   0.992       .  S
C2101      C2102   1.402       .  A
C2101      C2106   1.407       .  A
C2102      C2103   1.400       .  A
C2102      H2107   1.083       .  S
C2103      C2104   1.414       .  A
C2103      O2108   1.371       .  S
C2104      C2105   1.406       .  A
C2105      C2106   1.399       .  A
C2105      H2109   1.083       .  S
C2106      O2110   1.372       .  S
O2108      H2112   0.992       .  S
O2110      H2111   0.992       .  S
C2113      C2114   1.401       .  A
C2113      C2118   1.406       .  A
C2114      C2115   1.398       .  A
C2114      H2119   1.083       .  S
C2115      C2116   1.412       .  A
C2115      O2120   1.372       .  S
C2116      C2117   1.407       .  A
C2117      C2118   1.399       .  A
C2117      H2121   1.083       .  S
C2118      O2122   1.371       .  S
O2120      H2124   0.991       .  S
O2122      H2123   0.991       .  S
C2125      C2126   1.408       .  A
C2125      C2130   1.412       .  A
C2126      C2127   1.397       .  A
C2126      H2131   1.083       .  S
C2127      C2128   1.402       .  A
C2127      O2132   1.372       .  S
C2128      C2129   1.403       .  A
C2129      C2130   1.405       .  A
C2129      H2133   1.084       .  S
C2130      O2134   1.371       .  S
O2132      H2136   0.992       .  S
O2134      H2135   0.992       .  S
C2137      C2138   1.399       .  A
C2137      C2142   1.407       .  A
C2138      C2139   1.399       .  A
C2138      H2143   1.084       .  S
C2139      C2140   1.416       .  A
C2139      O2144   1.371       .  S
C2140      C2141   1.408       .  A
C2141      C2142   1.402       .  A
C2141      H2145   1.083       .  S
C2142      O2146   1.371       .  S
O2144      H2148   0.992       .  S
O2146      H2147   0.991       .  S
C2149      C2150   1.403       .  A
C2149      C2154   1.408       .  A
C2150      C2151   1.400       .  A
C2150      H2155   1.084       .  S
C2151      C2152   1.405       .  A
C2151      O2156   1.371       .  S
C2152      C2153   1.400       .  A
C2153      C2154   1.397       .  A
C2153      H2157   1.083       .  S
C2154      O2158   1.372       .  S
O2156      H2160   0.992       .  S
O2158      H2159   0.992       .  S
C2161      C2162   1.399       .  A
C2161      C2166   1.406       .  A
C2162      C2163   1.399       .  A
C2162      H2167   1.084       .  S
C2163      C2164   1.416       .  A
C2163      O2168   1.372       .  S
C2164      C2165   1.409       .  A
C2165      C2166   1.402       .  A
C2165      H2169   1.083       .  S
C2166      O2170   1.372       .  S
O2168      H2172   0.991       .  S
O2170      H2171   0.991       .  S
C2173      C2174   1.401       .  A
C2173      C2178   1.407       .  A
C2174      C2175   1.396       .  A
C2174      H2179   1.081       .  S
C2175      C2176   1.412       .  A
C2175      O2180   1.372       .  S
C2176      C2177   1.407       .  A
C2177      C2178   1.399       .  A
C2177      H2181   1.083       .  S
C2178      O2182   1.372       .  S
O2180      H2184   0.992       .  S
O2182      H2183   0.992       .  S
C2185      C2186   1.400       .  A
C2185      C2190   1.405       .  A
C2186      C2187   1.400       .  A
C2186      H2191   1.083       .  S
C2187      C2188   1.411       .  A
C2187      O2192   1.373       .  S
C2188      C2189   1.404       .  A
C2189      C2190   1.401       .  A
C2189      H2193   1.083       .  S
C2190      O2194   1.371       .  S
O2192      H2196   0.992       .  S
O2194      H2195   0.992       .  S
C2197      C2198   1.401       .  A
C2197      C2202   1.408       .  A
C2198      C2199   1.399       .  A
C2198      H2203   1.084       .  S
C2199      C2200   1.415       .  A
C2199      O2204   1.372       .  S
C2200      C2201   1.406       .  A
C2201      C2202   1.398       .  A
C2201      H2205   1.083       .  S
C2202      O2206   1.371       .  S
O2204      H2208   0.992       .  S
O2206      H2207   0.991       .  S
C2209      C2210   1.402       .  A
C2209      C2214   1.409       .  A
C2210      C2211   1.400       .  A
C2210      H2215   1.084       .  S
C2211      C2212   1.415       .  A
C2211      O2216   1.371       .  S
C2212      C2213   1.407       .  A
C2213      C2214   1.404       .  A
C2213      H2217   1.083       .  S
C2214      O2218   1.372       .  S
O2216      H2220   0.992       .  S
O2218      H2219   0.992       .  S
C2221      C2222   1.400       .  A
C2221      C2226   1.405       .  A
C2222      C2223   1.399       .  A
C2222      H2227   1.083       .  S
C2223      C2224   1.410       .  A
C2223      O2228   1.373       .  S
C2224      C2225   1.405       .  A
C2225      C2226   1.398       .  A
C2225      H2229   1.084       .  S
C2226      O2230   1.372       .  S
O2228      H2232   0.992       .  S
O2230      H2231   0.992       .  S
C2233      C2234   1.402       .  A
C2233      C2238   1.408       .  A
C2234      C2235   1.401       .  A
C2234      H2239   1.083       .  S
C2235      C2236   1.414       .  A
C2235      O2240   1.371       .  S
C2236      C2237   1.408       .  A
C2237      C2238   1.401       .  A
C2237      H2241   1.083       .  S
C2238      O2242   1.372       .  S
O2240      H2244   0.992       .  S
O2242      H2243   0.991       .  S
C2245      C2246   1.401       .  A
C2245      C2250   1.408       .  A
C2246      C2247   1.399       .  A
C2246      H2251   1.084       .  S
C2247      C2248   1.414       .  A
C2247      O2252   1.372       .  S
C2248      C2249   1.407       .  A
C2249      C2250   1.402       .  A
C2249      H2253   1.083       .  S
C2250      O2254   1.371       .  S
O2252      H2256   0.991       .  S
O2254      H2255   0.991       .  S
C2257      C2258   1.405       .  A
C2257      C2262   1.409       .  A
C2258      C2259   1.400       .  A
C2258      H2263   1.084       .  S
C2259      C2260   1.405       .  A
C2259      O2264   1.371       .  S
C2260      C2261   1.401       .  A
C2261      C2262   1.399       .  A
C2261      H2265   1.083       .  S
C2262      O2266   1.372       .  S
O2264      H2268   0.992       .  S
O2266      H2267   0.992       .  S
C2269      C2270   1.402       .  A
C2269      C2274   1.408       .  A
C2270      C2271   1.399       .  A
C2270      H2275   1.081       .  S
C2271      C2272   1.414       .  A
C2271      O2276   1.372       .  S
C2272      C2273   1.407       .  A
C2273      C2274   1.402       .  A
C2273      H2277   1.083       .  S
C2274      O2278   1.371       .  S
O2276      H2280   0.992       .  S
O2278      H2279   0.992       .  S
C2281      C2282   1.402       .  A
C2281      C2286   1.409       .  A
C2282      C2283   1.400       .  A
C2282      H2287   1.084       .  S
C2283      C2284   1.415       .  A
C2283      O2288   1.371       .  S
C2284      C2285   1.408       .  A
C2285      C2286   1.407       .  A
C2285      H2289   1.083       .  S
C2286      O2290   1.371       .  S
O2288      H2292   0.992       .  S
O2290      H2291   0.992       .  S
C2293      C2294   1.402       .  A
C2293      C2298   1.409       .  A
C2294      C2295   1.397       .  A
C2294      H2299   1.084       .  S
C2295      C2296   1.404       .  A
C2295      O2300   1.371       .  S
C2296      C2297   1.401       .  A
C2297      C2298   1.400       .  A
C2297      H2301   1.083       .  S
C2298      O2302   1.372       .  S
O2300      H2304   0.992       .  S
O2302      H2303   0.991       .  S
C2305      C2306   1.400       .  A
C2305      C2310   1.403       .  A
C2306      C2307   1.402       .  A
C2306      H2311   1.084       .  S
C2307      C2308   1.414       .  A
C2307      O2312   1.371       .  S
C2308      C2309   1.408       .  A
C2309      C2310   1.400       .  A
C2309      H2313   1.083       .  S
C2310      O2314   1.372       .  S
O2312      H2316   0.992       .  S
O2314      H2315   0.991       .  S
C2317      C2318   1.400       .  A
C2317      C2322   1.404       .  A
C2318      C2319   1.403       .  A
C2318      H2323   1.084       .  S
C2319      C2320   1.414       .  A
C2319      O2324   1.372       .  S
C2320      C2321   1.407       .  A
C2321      C2322   1.401       .  A
C2321      H2325   1.083       .  S
C2322      O2326   1.372       .  S
O2324      H2328   0.992       .  S
O2326      H2327   0.992       .  S
C2329      C2330   1.404       .  A
C2329      C2334   1.408       .  A
C2330      C2331   1.400       .  A
C2330      H2335   1.084       .  S
C2331      C2332   1.404       .  A
C2331      O2336   1.371       .  S
C2332      C2333   1.400       .  A
C2333      C2334   1.399       .  A
C2333      H2337   1.083       .  S
C2334      O2338   1.372       .  S
O2336      H2340   0.992       .  S
O2338      H2339   0.991       .  S
C2341      C2342   1.404       .  A
C2341      C2346   1.404       .  A
C2342      C2343   1.404       .  A
C2342      H2347   1.083       .  S
C2343      C2344   1.414       .  A
C2343      O2348   1.371       .  S
C2344      C2345   1.407       .  A
C2345      C2346   1.397       .  A
C2345      H2349   1.083       .  S
C2346      O2350   1.373       .  S
O2348      H2352   0.992       .  S
O2350      H2351   0.989       .  S
C2353      C2354   1.401       .  A
C2353      C2358   1.408       .  A
C2354      C2355   1.399       .  A
C2354      H2359   1.084       .  S
C2355      C2356   1.414       .  A
C2355      O2360   1.371       .  S
C2356      C2357   1.408       .  A
C2357      C2358   1.399       .  A
C2357      H2361   1.083       .  S
C2358      O2362   1.371       .  S
O2360      H2364   0.992       .  S
O2362      H2363   0.992       .  S
C2365      C2366   1.401       .  A
C2365      C2370   1.404       .  A
C2366      C2367   1.399       .  A
C2366      H2371   1.083       .  S
C2367      C2368   1.412       .  A
C2367      O2372   1.372       .  S
C2368      C2369   1.406       .  A
C2369      C2370   1.399       .  A
C2369      H2373   1.083       .  S
C2370      O2374   1.371       .  S
O2372      H2376   0.989       .  S
O2374      H2375   0.995       .  S
C2377      C2378   1.400       .  A
C2377      C2382   1.406       .  A
C2378      C2379   1.398       .  A
C2378      H2383   1.084       .  S
C2379      C2380   1.414       .  A
C2379      O2384   1.371       .  S
C2380      C2381   1.407       .  A
C2381      C2382   1.402       .  A
C2381      H2385   1.083       .  S
C2382      O2386   1.373       .  S
O2384      H2388   0.992       .  S
O2386      H2387   0.992       .  S
C2389      C2390   1.400       .  A
C2389      C2394   1.407       .  A
C2390      C2391   1.397       .  A
C2390      H2395   1.084       .  S
C2391      C2392   1.414       .  A
C2391      O2396   1.372       .  S
C2392      C2393   1.406       .  A
C2393      C2394   1.401       .  A
C2393      H2397   1.083       .  S
C2394      O2398   1.372       .  S
O2396      H2400   0.992       .  S
O2398      H2399   0.992       .  S
C2401      C2402   1.401       .  A
C2401      C2406   1.404       .  A
C2402      C2403   1.402       .  A
C2402      H2407   1.083       .  S
C2403      C2404   1.410       .  A
C2403      O2408   1.373       .  S
C2404      C2405   1.403       .  A
C2405      C2406   1.397       .  A
C2405      H2409   1.084       .  S
C2406      O2410   1.371       .  S
O2408      H2412   0.991       .  S
O2410      H2411   0.992       .  S
C2413      C2414   1.401       .  A
C2413      C2418   1.408       .  A
C2414      C2415   1.400       .  A
C2414      H2419   1.084       .  S
C2415      C2416   1.415       .  A
C2415      O2420   1.372       .  S
C2416      C2417   1.407       .  A
C2417      C2418   1.401       .  A
C2417      H2421   1.083       .  S
C2418      O2422   1.370       .  S
O2420      H2424   0.992       .  S
O2422      H2423   0.992       .  S
C2425      C2426   1.408       .  A
C2425      C2430   1.414       .  A
C2426      C2427   1.398       .  A
C2426      H2431   1.083       .  S
C2427      C2428   1.405       .  A
C2427      O2432   1.371       .  S
C2428      C2429   1.401       .  A
C2429      C2430   1.402       .  A
C2429      H2433   1.084       .  S
C2430      O2434   1.372       .  S
O2432      H2436   0.991       .  S
O2434      H2435   0.991       .  S
C2437      C2438   1.401       .  A
C2437      C2442   1.404       .  A
C2438      C2439   1.402       .  A
C2438      H2443   1.083       .  S
C2439      C2440   1.410       .  A
C2439      O2444   1.373       .  S
C2440      C2441   1.404       .  A
C2441      C2442   1.397       .  A
C2441      H2445   1.084       .  S
C2442      O2446   1.371       .  S
O2444      H2448   0.992       .  S
O2446      H2447   0.992       .  S
C2449      C2450   1.402       .  A
C2449      C2454   1.406       .  A
C2450      C2451   1.402       .  A
C2450      H2455   1.084       .  S
C2451      C2452   1.414       .  A
C2451      O2456   1.372       .  S
C2452      C2453   1.408       .  A
C2453      C2454   1.402       .  A
C2453      H2457   1.083       .  S
C2454      O2458   1.372       .  S
O2456      H2460   0.992       .  S
O2458      H2459   0.992       .  S
C2461      C2462   1.404       .  A
C2461      C2466   1.405       .  A
C2462      C2463   1.402       .  A
C2462      H2467   1.083       .  S
C2463      C2464   1.413       .  A
C2463      O2468   1.371       .  S
C2464      C2465   1.409       .  A
C2465      C2466   1.399       .  A
C2465      H2469   1.083       .  S
C2466      O2470   1.372       .  S
O2468      H2472   0.991       .  S
O2470      H2471   0.992       .  S
C2473      C2474   1.401       .  A
C2473      C2478   1.404       .  A
C2474      C2475   1.397       .  A
C2474      H2479   1.083       .  S
C2475      C2476   1.410       .  A
C2475      O2480   1.372       .  S
C2476      C2477   1.405       .  A
C2477      C2478   1.398       .  A
C2477      H2481   1.084       .  S
C2478      O2482   1.371       .  S
O2480      H2484   0.991       .  S
O2482      H2483   0.992       .  S
C2485      C2486   1.406       .  A
C2485      C2490   1.414       .  A
C2486      C2487   1.398       .  A
C2486      H2491   1.083       .  S
C2487      C2488   1.408       .  A
C2487      O2492   1.372       .  S
C2488      C2489   1.403       .  A
C2489      C2490   1.402       .  A
C2489      H2493   1.082       .  S
C2490      O2494   1.372       .  S
O2492      H2496   0.992       .  S
O2494      H2495   0.991       .  S
C2497      C2498   1.407       .  A
C2497      C2502   1.414       .  A
C2498      C2499   1.397       .  A
C2498      H2503   1.083       .  S
C2499      C2500   1.406       .  A
C2499      O2504   1.371       .  S
C2500      C2501   1.402       .  A
C2501      C2502   1.402       .  A
C2501      H2505   1.084       .  S
C2502      O2506   1.371       .  S
O2504      H2508   0.991       .  S
O2506      H2507   0.992       .  S
C2509      C2510   1.401       .  A
C2509      C2514   1.404       .  A
C2510      C2511   1.401       .  A
C2510      H2515   1.083       .  S
C2511      C2512   1.410       .  A
C2511      O2516   1.373       .  S
C2512      C2513   1.405       .  A
C2513      C2514   1.399       .  A
C2513      H2517   1.084       .  S
C2514      O2518   1.371       .  S
O2516      H2520   0.992       .  S
O2518      H2519   0.992       .  S
C2521      C2522   1.402       .  A
C2521      C2526   1.410       .  A
C2522      C2523   1.404       .  A
C2522      H2527   1.083       .  S
C2523      C2524   1.418       .  A
C2523      O2528   1.371       .  S
C2524      C2525   1.406       .  A
C2525      C2526   1.401       .  A
C2525      H2529   1.083       .  S
C2526      O2530   1.372       .  S
O2528      H2532   0.992       .  S
O2530      H2531   0.992       .  S
C2533      C2534   1.402       .  A
C2533      C2538   1.407       .  A
C2534      C2535   1.398       .  A
C2534      H2539   1.084       .  S
C2535      C2536   1.413       .  A
C2535      O2540   1.372       .  S
C2536      C2537   1.410       .  A
C2537      C2538   1.407       .  A
C2537      H2541   1.083       .  S
C2538      O2542   1.373       .  S
O2540      H2544   0.992       .  S
O2542      H2543   0.992       .  S
C2545      C2546   1.406       .  A
C2545      C2550   1.412       .  A
C2546      C2547   1.401       .  A
C2546      H2551   1.078       .  S
C2547      C2548   1.411       .  A
C2547      O2552   1.377       .  S
C2548      C2549   1.409       .  A
C2549      C2550   1.398       .  A
C2549      H2553   1.082       .  S
C2550      O2554   1.370       .  S
O2552      H2556   0.992       .  S
O2554      H2555   0.992       .  S
C2557      C2558   1.403       .  A
C2557      C2562   1.406       .  A
C2558      C2559   1.402       .  A
C2558      H2563   1.084       .  S
C2559      C2560   1.407       .  A
C2559      O2564   1.371       .  S
C2560      C2561   1.404       .  A
C2561      C2562   1.401       .  A
C2561      H2565   1.083       .  S
C2562      O2566   1.371       .  S
O2564      H2568   0.992       .  S
O2566      H2567   0.992       .  S
C2569      C2570   1.404       .  A
C2569      C2574   1.406       .  A
C2570      C2571   1.402       .  A
C2570      H2575   1.084       .  S
C2571      C2572   1.409       .  A
C2571      O2576   1.371       .  S
C2572      C2573   1.406       .  A
C2573      C2574   1.404       .  A
C2573      H2577   1.084       .  S
C2574      O2578   1.371       .  S
O2576      H2580   0.991       .  S
O2578      H2579   0.992       .  S
C2581      C2582   1.399       .  A
C2581      C2586   1.406       .  A
C2582      C2583   1.402       .  A
C2582      H2587   1.083       .  S
C2583      C2584   1.410       .  A
C2583      O2588   1.372       .  S
C2584      C2585   1.400       .  A
C2585      C2586   1.395       .  A
C2585      H2589   1.083       .  S
C2586      O2590   1.371       .  S
O2588      H2592   0.992       .  S
O2590      H2591   0.992       .  S
C2593      C2594   1.403       .  A
C2593      C2598   1.408       .  A
C2594      C2595   1.402       .  A
C2594      H2599   1.084       .  S
C2595      C2596   1.416       .  A
C2595      O2600   1.372       .  S
C2596      C2597   1.408       .  A
C2597      C2598   1.402       .  A
C2597      H2601   1.083       .  S
C2598      O2602   1.371       .  S
O2600      H2604   0.992       .  S
O2602      H2603   0.992       .  S
C2605      C2606   1.402       .  A
C2605      C2610   1.407       .  A
C2606      C2607   1.405       .  A
C2606      H2611   1.084       .  S
C2607      C2608   1.416       .  A
C2607      O2612   1.371       .  S
C2608      C2609   1.407       .  A
C2609      C2610   1.399       .  A
C2609      H2613   1.083       .  S
C2610      O2614   1.372       .  S
O2612      H2616   0.992       .  S
O2614      H2615   0.992       .  S
C2617      C2618   1.406       .  A
C2617      C2622   1.416       .  A
C2618      C2619   1.396       .  A
C2618      H2623   1.081       .  S
C2619      C2620   1.411       .  A
C2619      O2624   1.369       .  S
C2620      C2621   1.403       .  A
C2621      C2622   1.399       .  A
C2621      H2625   1.081       .  S
C2622      O2626   1.375       .  S
O2624      H2628   0.992       .  S
O2626      H2627   0.992       .  S
C2629      C2630   1.405       .  A
C2629      C2634   1.408       .  A
C2630      C2631   1.399       .  A
C2630      H2635   1.083       .  S
C2631      C2632   1.405       .  A
C2631      O2636   1.371       .  S
C2632      C2633   1.401       .  A
C2633      C2634   1.400       .  A
C2633      H2637   1.084       .  S
C2634      O2638   1.371       .  S
O2636      H2640   0.992       .  S
O2638      H2639   0.992       .  S
C2641      C2642   1.402       .  A
C2641      C2646   1.405       .  A
C2642      C2643   1.400       .  A
C2642      H2647   1.084       .  S
C2643      C2644   1.411       .  A
C2643      O2648   1.372       .  S
C2644      C2645   1.406       .  A
C2645      C2646   1.402       .  A
C2645      H2649   1.084       .  S
C2646      O2650   1.372       .  S
O2648      H2652   0.992       .  S
O2650      H2651   0.992       .  S
C2653      C2654   1.399       .  A
C2653      C2658   1.407       .  A
C2654      C2655   1.399       .  A
C2654      H2659   1.083       .  S
C2655      C2656   1.410       .  A
C2655      O2660   1.371       .  S
C2656      C2657   1.400       .  A
C2657      C2658   1.394       .  A
C2657      H2661   1.083       .  S
C2658      O2662   1.372       .  S
O2660      H2664   0.992       .  S
O2662      H2663   0.991       .  S
C2665      C2666   1.404       .  A
C2665      C2670   1.411       .  A
C2666      C2667   1.402       .  A
C2666      H2671   1.084       .  S
C2667      C2668   1.408       .  A
C2667      O2672   1.372       .  S
C2668      C2669   1.403       .  A
C2669      C2670   1.405       .  A
C2669      H2673   1.084       .  S
C2670      O2674   1.371       .  S
O2672      H2676   0.992       .  S
O2674      H2675   0.992       .  S
C2677      C2678   1.402       .  A
C2677      C2682   1.404       .  A
C2678      C2679   1.403       .  A
C2678      H2683   1.083       .  S
C2679      C2680   1.413       .  A
C2679      O2684   1.372       .  S
C2680      C2681   1.407       .  A
C2681      C2682   1.399       .  A
C2681      H2685   1.083       .  S
C2682      O2686   1.371       .  S
O2684      H2688   0.992       .  S
O2686      H2687   0.992       .  S
C2689      C2690   1.402       .  A
C2689      C2694   1.404       .  A
C2690      C2691   1.399       .  A
C2690      H2695   1.084       .  S
C2691      C2692   1.406       .  A
C2691      O2696   1.371       .  S
C2692      C2693   1.401       .  A
C2693      C2694   1.397       .  A
C2693      H2697   1.081       .  S
C2694      O2698   1.371       .  S
O2696      H2700   0.992       .  S
O2698      H2699   0.992       .  S
C2701      C2702   1.404       .  A
C2701      C2706   1.410       .  A
C2702      C2703   1.399       .  A
C2702      H2707   1.084       .  S
C2703      C2704   1.406       .  A
C2703      O2708   1.372       .  S
C2704      C2705   1.403       .  A
C2705      C2706   1.405       .  A
C2705      H2709   1.083       .  S
C2706      O2710   1.371       .  S
O2708      H2712   0.992       .  S
O2710      H2711   0.991       .  S
C2713      C2714   1.402       .  A
C2713      C2718   1.405       .  A
C2714      C2715   1.402       .  A
C2714      H2719   1.084       .  S
C2715      C2716   1.410       .  A
C2715      O2720   1.372       .  S
C2716      C2717   1.404       .  A
C2717      C2718   1.401       .  A
C2717      H2721   1.084       .  S
C2718      O2722   1.371       .  S
O2720      H2724   0.991       .  S
O2722      H2723   0.992       .  S
C2725      C2726   1.405       .  A
C2725      C2730   1.406       .  A
C2726      C2727   1.401       .  A
C2726      H2731   1.083       .  S
C2727      C2728   1.403       .  A
C2727      O2732   1.372       .  S
C2728      C2729   1.401       .  A
C2729      C2730   1.395       .  A
C2729      H2733   1.084       .  S
C2730      O2734   1.370       .  S
O2732      H2736   0.992       .  S
O2734      H2735   0.992       .  S
C2737      C2738   1.406       .  A
C2737      C2742   1.407       .  A
C2738      C2739   1.402       .  A
C2738      H2743   1.083       .  S
C2739      C2740   1.406       .  A
C2739      O2744   1.371       .  S
C2740      C2741   1.401       .  A
C2741      C2742   1.400       .  A
C2741      H2745   1.084       .  S
C2742      O2746   1.371       .  S
O2744      H2748   0.992       .  S
O2746      H2747   0.992       .  S
C2749      C2750   1.401       .  A
C2749      C2754   1.404       .  A
C2750      C2751   1.402       .  A
C2750      H2755   1.084       .  S
C2751      C2752   1.411       .  A
C2751      O2756   1.372       .  S
C2752      C2753   1.407       .  A
C2753      C2754   1.402       .  A
C2753      H2757   1.084       .  S
C2754      O2758   1.371       .  S
O2756      H2760   0.992       .  S
O2758      H2759   0.992       .  S
C2761      C2762   1.401       .  A
C2761      C2766   1.406       .  A
C2762      C2763   1.401       .  A
C2762      H2767   1.084       .  S
C2763      C2764   1.409       .  A
C2763      O2768   1.372       .  S
C2764      C2765   1.399       .  A
C2765      C2766   1.392       .  A
C2765      H2769   1.081       .  S
C2766      O2770   1.372       .  S
O2768      H2772   0.992       .  S
O2770      H2771   0.992       .  S
C2773      C2774   1.402       .  A
C2773      C2778   1.407       .  A
C2774      C2775   1.399       .  A
C2774      H2779   1.084       .  S
C2775      C2776   1.415       .  A
C2775      O2780   1.372       .  S
C2776      C2777   1.410       .  A
C2777      C2778   1.407       .  A
C2777      H2781   1.083       .  S
C2778      O2782   1.372       .  S
O2780      H2784   0.992       .  S
O2782      H2783   0.992       .  S
C2785      C2786   1.403       .  A
C2785      C2790   1.408       .  A
C2786      C2787   1.406       .  A
C2786      H2791   1.083       .  S
C2787      C2788   1.417       .  A
C2787      O2792   1.371       .  S
C2788      C2789   1.407       .  A
C2789      C2790   1.398       .  A
C2789      H2793   1.083       .  S
C2790      O2794   1.372       .  S
O2792      H2796   0.992       .  S
O2794      H2795   0.992       .  S
C2797      C2798   1.407       .  A
C2797      C2802   1.413       .  A
C2798      C2799   1.401       .  A
C2798      H2803   1.078       .  S
C2799      C2800   1.412       .  A
C2799      O2804   1.376       .  S
C2800      C2801   1.408       .  A
C2801      C2802   1.403       .  A
C2801      H2805   1.082       .  S
C2802      O2806   1.374       .  S
O2804      H2808   0.993       .  S
O2806      H2807   0.992       .  S
