geometry optimzed in LAMMPS
_audit_creation_date              2020-11-30 
_audit_creation_method            'lammps2cif' 
_symmetry_space_group_name_H-M    'P1' 
_symmetry_Int_Tables_number       1 
_symmetry_cell_setting            triclinic 
loop_ 
_symmetry_equiv_pos_as_xyz 
  x,y,z 
_cell_length_a                    49.763498439794525 
_cell_length_b                    49.7950918911903 
_cell_length_c                    40.358602995492696 
_cell_angle_alpha                 91.9459956516485 
_cell_angle_beta                  90.11208299681412 
_cell_angle_gamma                 119.87729396368874 
loop_ 
_atom_site_label 
_atom_site_type_symbol 
_atom_site_fract_x 
_atom_site_fract_y 
_atom_site_fract_z 
_atom_site_charge 
O1          O  0.44576235  0.41557561  0.35350138    -0.81400
O2          O  0.45092622  0.34257998  0.44719456    -0.81420
O3          O  0.36131147  0.32793445  0.40246899    -0.81430
O4          O  0.49980596  0.37725555  0.37774042    -0.81370
O5          O  0.39975400  0.34443078  0.43780396    -0.81500
O6          O  0.47298953  0.39744425  0.39932164    -0.81410
O7          O  0.47784402  0.32685363  0.41834760    -0.81400
O8          O  0.40318589  0.38221773  0.37917847    -0.81440
C9          C  0.42201509  0.40994409  0.36987479     1.08290
C10         C  0.47195604  0.33579671  0.44595691     1.08180
C11         C  0.37297195  0.33897943  0.43091586     1.08310
C12         C  0.49899036  0.40008912  0.39219088     1.08190
O13         O  0.47184030  0.38343723  0.32994139    -0.81400
O14         O  0.36922536  0.28178260  0.40667241    -0.81480
O15         O  0.36199366  0.33950525  0.33568832    -0.81410
O16         O  0.43662682  0.28756803  0.36520283    -0.81390
O17         O  0.42238311  0.28055704  0.41709416    -0.81440
O18         O  0.41127182  0.36008356  0.32126445    -0.81410
O19         O  0.46052474  0.33554227  0.32328916    -0.81370
O20         O  0.37050092  0.29097391  0.35354485    -0.81440
Co21       Co  0.44044890  0.37679235  0.36393395     1.51530
Co22       Co  0.41161067  0.31409182  0.42515077     1.51690
Co23       Co  0.39036614  0.33621883  0.36443881     1.51570
Co24       Co  0.46611701  0.33174551  0.37132377     1.51470
O25         O  0.42829957  0.33606924  0.38265860    -1.43330
C26         C  0.47153657  0.36212555  0.31179619     1.08220
C27         C  0.35753926  0.27311945  0.37738025     1.08310
C28         C  0.38277449  0.35211459  0.31410237     1.08240
C29         C  0.42738387  0.27050286  0.38985378     1.08220
O30         O  0.46088557  0.11173765  0.31945575    -0.81400
O31         O  0.42823067  0.03871727  0.40341763    -0.81420
O32         O  0.98663348  0.10540849  0.38437778    -0.81430
O33         O  0.36202564  0.03996004  0.34237121    -0.81370
O34         O  0.47429444  0.08303707  0.43043894    -0.81500
O35         O  0.40523125  0.06095601  0.31450155    -0.81410
O36         O  0.37987186  0.01551406  0.38959645    -0.81400
O37         O  0.48419904  0.15043025  0.35513511    -0.81440
C38         C  0.48326553  0.13828920  0.32664333     1.08290
C39         C  0.40437180  0.01461643  0.39360509     1.08180
C40         C  0.99214536  0.09175586  0.40669405     1.08310
C41         C  0.37768492  0.03983223  0.31744961     1.08190
O42         O  0.37551117  0.09505825  0.33784495    -0.81400
O43         O  0.44702528  0.11900960  0.44832100    -0.81480
O44         O  0.43583618  0.14509696  0.40023406    -0.81410
O45         O  0.38070799  0.05797701  0.44223687    -0.81390
O46         O  0.42213588  0.05856543  0.46433778    -0.81440
O47         O  0.43175905  0.14616755  0.34650213    -0.81410
O48         O  0.36955710  0.08906104  0.39123380    -0.81370
O49         O  0.49039364  0.15286491  0.42444820    -0.81440
Co50       Co  0.41888682  0.10232521  0.33235534     1.51530
Co51       Co  0.43271637  0.07698993  0.42302998     1.51690
Co52       Co  0.46019011  0.12405033  0.39361100     1.51570
Co53       Co  0.37748151  0.05430767  0.39035981     1.51470
O54         O  0.42405465  0.08642101  0.37685906    -1.43330
C55         C  0.36131201  0.09465348  0.36407868     1.08220
C56         C  0.47562600  0.14143756  0.45073681     1.08310
C57         C  0.43230288  0.15747737  0.37523807     1.08240
C58         C  0.39453992  0.05306860  0.46669677     1.08220
O59         O  0.02908671  0.40046312  0.11430973    -0.81400
O60         O  0.15981773  0.48304448  0.07153451    -0.81420
O61         O  0.09335398  0.48654582  0.14999668    -0.81430
O62         O  0.06625105  0.39910244  0.05475242    -0.81370
O63         O  0.12554528  0.50310128  0.10833944    -0.81500
O64         O  0.04520325  0.36438263  0.09274510    -0.81410
O65         O  0.11832141  0.45176123  0.04234749    -0.81400
O66         O  0.05211025  0.44817662  0.10972323    -0.81440
C67         C  0.02739922  0.42360053  0.10627603     1.08290
C68         C  0.14524074  0.47461302  0.04423833     1.08180
C69         C  0.10747025  0.50655218  0.12809659     1.08310
C70         C  0.04643303  0.37217801  0.06260468     1.08190
O71         O  0.09439512  0.38055666  0.14125242    -0.81400
O72         O  0.14133402  0.48214714  0.16470331    -0.81480
O73         O  0.04498223  0.42738261  0.17657421    -0.81410
O74         O  0.15477926  0.42939614  0.07688562    -0.81390
O75         O  0.16424672  0.45206073  0.12698453    -0.81440
O76         O  0.03947565  0.38002919  0.16851860    -0.81410
O77         O  0.10174472  0.37667957  0.08800440    -0.81370
O78         O  0.10307735  0.43893172  0.18005577    -0.81440
Co79       Co  0.06680573  0.39775588  0.12973584     1.51530
Co80       Co  0.14437021  0.47668804  0.11732483     1.51690
Co81       Co  0.07705758  0.44070641  0.14266809     1.51570
Co82       Co  0.10954037  0.41560932  0.06756405     1.51470
O83         O  0.10278673  0.43674431  0.10749921    -1.43330
C84         C  0.09935431  0.36663506  0.11688766     1.08220
C85         C  0.12730411  0.46439087  0.18754025     1.08310
C86         C  0.03378195  0.39919361  0.18567474     1.08240
C87         C  0.17019592  0.43789688  0.10422185     1.08220
O88         O  0.15609177  0.11041716  0.32292700    -0.81400
O89         O  0.12484774  0.03399712  0.36402538    -0.81420
O90         O  0.17570959  0.06153536  0.31497756    -0.81430
O91         O  0.12001266  0.09048971  0.42458075    -0.81370
O92         O  0.16828634  0.02025746  0.34103574    -0.81500
O93         O  0.12032269  0.09872046  0.37164299    -0.81410
O94         O  0.12299581  0.03772286  0.41827338    -0.81400
O95         O  0.20344267  0.12549221  0.31187931    -0.81440
C96         C  0.17707883  0.12014548  0.30239164     1.08290
C97         C  0.11034480  0.02353532  0.39067170     1.08180
C98         C  0.16832818  0.03255954  0.31422454     1.08310
C99         C  0.10615038  0.09077054  0.39819777     1.08190
O100        O  0.16625355  0.14788349  0.41332620    -0.81400
O101        O  0.21890836  0.07120491  0.36982882    -0.81480
O102        O  0.23401904  0.13578600  0.37510450    -0.81410
O103        O  0.18941779  0.07374451  0.43833609    -0.81390
O104        O  0.16984753  0.03296320  0.40546508    -0.81440
O105        O  0.20964162  0.16115699  0.36304603    -0.81410
O106        O  0.18477333  0.12571467  0.44450877    -0.81370
O107        O  0.23748158  0.09900210  0.32571667    -0.81440
Co108      Co  0.16383704  0.12776743  0.36807683     1.51530
Co109      Co  0.17092702  0.05482363  0.36553542     1.51690
Co110      Co  0.20416979  0.09885966  0.34818840     1.51570
Co111      Co  0.15603383  0.08281254  0.42886716     1.51470
O112        O  0.17198305  0.09387505  0.38181873    -1.43330
C113        C  0.17676776  0.14584024  0.44130102     1.08220
C114        C  0.24112953  0.08480143  0.34911564     1.08310
C115        C  0.23454160  0.16117292  0.37146121     1.08240
C116        C  0.18294902  0.04622105  0.43260514     1.08220
O117        O  0.03751459  0.10498160  0.16918079    -0.81400
O118        O  0.11910383  0.20140145  0.04947779    -0.81420
O119        O  0.03950109  0.17857919  0.09854695    -0.81430
O120        O  0.12354423  0.13919994  0.12617444    -0.81370
O121        O  0.06585193  0.15870724  0.07772121    -0.81500
O122        O  0.07420165  0.12118679  0.11691502    -0.81410
O123        O  0.14525493  0.18837699  0.08415524    -0.81400
O124        O  0.02407370  0.13915927  0.15119973    -0.81440
C125        C  0.01723336  0.11143804  0.15921985     1.08290
C126        C  0.13960532  0.19362518  0.05427016     1.08180
C127        C  0.04351190  0.16349372  0.07507169     1.08310
C128        C  0.09724980  0.11702633  0.11678989     1.08190
O129        O  0.10073606  0.13366074  0.18296166    -0.81400
O130        O  0.08878754  0.22773238  0.08939417    -0.81480
O131        O  0.06247487  0.19622698  0.19375832    -0.81410
O132        O  0.16177737  0.22939957  0.14537999    -0.81390
O133        O  0.14013886  0.23689431  0.10310244    -0.81440
O134        O  0.06723717  0.15660576  0.20413833    -0.81410
O135        O  0.13978376  0.18071245  0.18385350    -0.81370
O136        O  0.08079647  0.23101500  0.14226697    -0.81440
Co137      Co  0.07116282  0.14231474  0.15800589     1.51530
Co138      Co  0.10379611  0.19606129  0.09321651     1.51690
Co139      Co  0.05552013  0.18630985  0.14609687     1.51570
Co140      Co  0.13917948  0.18474657  0.13563531     1.51470
O141        O  0.09644329  0.18393040  0.13997785    -1.43330
C142        C  0.12686357  0.15401783  0.19511750     1.08220
C143        C  0.08732281  0.24331630  0.11466846     1.08310
C144        C  0.06188004  0.17762254  0.21405745     1.08240
C145        C  0.16071869  0.24733573  0.12520593     1.08220
O146        O  0.40312340  0.43647674  0.10840808    -0.81400
O147        O  0.34949731  0.45509931  0.06493359    -0.81420
O148        O  0.33444440  0.35943925  0.07761871    -0.81430
O149        O  0.38370445  0.48604601  0.13231069    -0.81370
O150        O  0.35079157  0.40387541  0.05536580    -0.81500
O151        O  0.41647271  0.47695659  0.16082804    -0.81410
O152        O  0.33214214  0.47469471  0.10253231    -0.81400
O153        O  0.38387298  0.38799972  0.12183629    -0.81440
C154        C  0.40574942  0.41246142  0.10965203     1.08290
C155        C  0.34366271  0.47590164  0.07421113     1.08180
C156        C  0.34614795  0.37693873  0.05335291     1.08310
C157        C  0.41047721  0.49535402  0.14603535     1.08190
O158        O  0.35880405  0.45151628  0.18565431    -0.81400
O159        O  0.28691476  0.36724337  0.07893802    -0.81480
O160        O  0.33922912  0.38099458  0.17438328    -0.81410
O161        O  0.29236585  0.42425395  0.14397196    -0.81390
O162        O  0.28692439  0.42069897  0.08956582    -0.81440
O163        O  0.38715746  0.41728030  0.17545315    -0.81410
O164        O  0.33768938  0.47986350  0.17159757    -0.81370
O165        O  0.29467051  0.35829190  0.12994315    -0.81440
Co166      Co  0.37958667  0.44350230  0.14383288     1.51530
Co167      Co  0.32016452  0.41201821  0.07421548     1.51690
Co168      Co  0.33804095  0.37411741  0.12594755     1.51570
Co169      Co  0.33789183  0.45135050  0.13964358     1.51470
O170        O  0.34078974  0.41584161  0.11838831    -1.43330
C171        C  0.34943469  0.47092663  0.19369614     1.08220
C172        C  0.27665674  0.35349385  0.10597076     1.08310
C173        C  0.36479416  0.39517007  0.18947014     1.08240
C174        C  0.27644908  0.42136110  0.11806887     1.08220
C175        C  0.48600658  0.08602787  0.15338847    -0.07390
C176        C  0.47992803  0.06934768  0.12301151    -0.18510
C177        C  0.45382220  0.04007772  0.11870206     0.09810
C178        C  0.43384407  0.02767103  0.14552469    -0.07310
C179        C  0.43865871  0.04537074  0.17489237    -0.18550
C180        C  0.46467741  0.07458455  0.17909237     0.09840
S181        S  0.44927426  0.01875115  0.08003641    -0.33510
S182        S  0.47082389  0.09501356  0.21847114    -0.33520
H183        H  0.48648660  0.12445091  0.20499403     0.27850
H184        H  0.41708373  0.49911235  0.08122559     0.27850
H185        H  0.49665353  0.07830510  0.10337690     0.18440
H186        H  0.42289349  0.03574363  0.19524457     0.18450
C187        C  0.24400209  0.33008212  0.11081156    -0.07390
C188        C  0.23572576  0.31931111  0.14326269    -0.18510
C189        C  0.20686009  0.29449565  0.14987297     0.09810
C190        C  0.18571460  0.27942614  0.12347548    -0.07310
C191        C  0.19223519  0.29243323  0.09198998    -0.18550
C192        C  0.22131092  0.31724883  0.08520385     0.09840
S193        S  0.19878796  0.28284274  0.19221302    -0.33510
S194        S  0.22843584  0.32922887  0.04302659    -0.33520
H195        H  0.25240808  0.32216661  0.03947489     0.27850
H196        H  0.16665844  0.27132844  0.18911966     0.27850
H197        H  0.25201318  0.32991924  0.16395617     0.18440
H198        H  0.17575765  0.28136282  0.07151957     0.18450
C199        C  0.14267103  0.14559350  0.22061989    -0.07390
C200        C  0.12705978  0.11501303  0.23109574    -0.18510
C201        C  0.14003864  0.10505829  0.25483430     0.09810
C202        C  0.16937515  0.12595386  0.26925887    -0.07310
C203        C  0.18615245  0.15587491  0.25746127    -0.18550
C204        C  0.17308512  0.16609686  0.23362409     0.09840
S205        S  0.11716917  0.06567512  0.26738634    -0.33510
S206        S  0.19598321  0.20596143  0.22267995    -0.33520
H207        H  0.17322047  0.21334027  0.23252354     0.27850
H208        H  0.14271502  0.06108986  0.26770192     0.27850
H209        H  0.10417534  0.09859031  0.22120271     0.18440
H210        H  0.20833148  0.17224353  0.26900528     0.18450
C211        C  0.15548542  0.18761977  0.02579213    -0.07390
C212        C  0.16768149  0.16790106  0.03065360    -0.18510
C213        C  0.17772133  0.15634102  0.00421362     0.09810
C214        C  0.17496356  0.16379997  0.47114438    -0.07310
C215        C  0.16531039  0.18573042  0.46666328    -0.18550
C216        C  0.15628109  0.19810966  0.99345280     0.09840
S217        S  0.19194773  0.13073160  0.01489747    -0.33510
S218        S  0.14637409  0.22737959  0.48465796    -0.33520
H219        H  0.15949852  0.24476311  0.01442609     0.27850
H220        H  0.21862483  0.14598262  0.49566973     0.27850
H221        H  0.16828513  0.16019941  0.05529468     0.18440
H222        H  0.16394363  0.19277307  0.44190723     0.18450
C223        C  0.16061767  0.49121557  0.01467289    -0.07390
C224        C  0.18400354  0.02240249  0.01857410    -0.18510
C225        C  0.19612207  0.04054082  0.99110706     0.09810
C226        C  0.18354049  0.02746351  0.45941471    -0.07310
C227        C  0.16395031  0.49530017  0.45536561    -0.18550
C228        C  0.15244907  0.47702387  0.48261700     0.09840
S229        S  0.22662178  0.08013123  0.99814640    -0.33510
S230        S  0.12691785  0.43615737  0.47444572    -0.33520
H231        H  0.13907818  0.42716892  0.00062601     0.27850
H232        H  0.23979932  0.08241092  0.96679963     0.27850
H233        H  0.19202015  0.03309886  0.04311441     0.18440
H234        H  0.15538165  0.48450465  0.43096400     0.18450
C235        C  0.13902283  0.47786340  0.22192985    -0.07390
C236        C  0.16457857  0.00850846  0.22378461    -0.18510
C237        C  0.17425484  0.02649588  0.25319959     0.09810
C238        C  0.15905016  0.01368105  0.28268080    -0.07310
C239        C  0.13526702  0.98231058  0.28194185    -0.18550
C240        C  0.12503041  0.46432865  0.25195829     0.09840
S241        S  0.20685025  0.06561582  0.25253559    -0.33510
S242        S  0.09457076  0.42464604  0.25386486    -0.33520
H243        H  0.10798154  0.41331542  0.23070118     0.27850
H244        H  0.20856677  0.06815131  0.21790839     0.27850
H245        H  0.17696529  0.01925123  0.20168306     0.18440
H246        H  0.12421865  0.47186939  0.30479607     0.18450
C247        C  0.10231231  0.03367148  0.12470648    -0.07390
C248        C  0.10908436  0.04891283  0.09436723    -0.18510
C249        C  0.10454605  0.07429731  0.08952195     0.09810
C250        C  0.09313306  0.08525294  0.11542315    -0.07310
C251        C  0.08449688  0.06892341  0.14484185    -0.18550
C252        C  0.08945989  0.04397694  0.15006085     0.09840
S253        S  0.11311654  0.09138234  0.04955593    -0.33510
S254        S  0.08058281  0.02783600  0.19049951    -0.33520
H255        H  0.10922171  0.02894686  0.19473410     0.27850
H256        H  0.09517240  0.10592785  0.05271742     0.27850
H257        H  0.11791369  0.04097035  0.07407333     0.18440
H258        H  0.07560814  0.07690995  0.16499120     0.18450
C259        C  0.09250973  0.27560219  0.11376832    -0.07390
C260        C  0.10489053  0.29534763  0.14255813    -0.18510
C261        C  0.10749971  0.32492400  0.14531096     0.09810
C262        C  0.09767529  0.33564449  0.11842101    -0.07310
C263        C  0.08524958  0.31560248  0.08982975    -0.18550
C264        C  0.08239589  0.28615326  0.08728003     0.09840
S265        S  0.12300539  0.34680937  0.18395511    -0.33510
S266        S  0.06352471  0.26243773  0.05050141    -0.33520
H267        H  0.04426248  0.23558565  0.06774735     0.27850
H268        H  0.13396434  0.37649310  0.17207170     0.27850
H269        H  0.11244327  0.28750071  0.16348376     0.18440
H270        H  0.07621894  0.32229132  0.06932896     0.18450
C271        C  0.19734571  0.43383087  0.10870837    -0.07390
C272        C  0.19428036  0.40830530  0.12557688    -0.18510
C273        C  0.21985778  0.40421994  0.13139709     0.09810
C274        C  0.24912778  0.42576482  0.11913504    -0.07310
C275        C  0.25198085  0.45141697  0.10253217    -0.18550
C276        C  0.22668524  0.45578769  0.09746130     0.09840
S277        S  0.21286782  0.37056306  0.15328568    -0.33510
S278        S  0.23306463  0.48935892  0.07558001    -0.33520
H279        H  0.21499043  0.49662417  0.09672647     0.27850
H280        H  0.24323394  0.38220854  0.16541611     0.27850
H281        H  0.17171378  0.39126451  0.13401576     0.18440
H282        H  0.27427605  0.46830147  0.09318315     0.18450
C283        C  0.43597169  0.41431230  0.10081163    -0.07390
C284        C  0.46259851  0.44373072  0.09864922    -0.18510
C285        C  0.49255383  0.44754691  0.09774656     0.09810
C286        C  0.49671446  0.42140147  0.09888445    -0.07310
C287        C  0.46990246  0.39187899  0.09806435    -0.18550
C288        C  0.43994665  0.38803272  0.09839529     0.09840
S289        S  0.02437928  0.48664216  0.09776583    -0.33510
S290        S  0.40795290  0.34884102  0.09603859    -0.33520
H291        H  0.39018941  0.35565819  0.07436404     0.27850
H292        H  0.03274592  0.48551638  0.13079983     0.27850
H293        H  0.46036615  0.46429279  0.09975569     0.18440
H294        H  0.47216591  0.37138338  0.09849765     0.18450
C295        C  0.49304208  0.14978729  0.48263485    -0.07390
C296        C  0.01934279  0.14642366  0.48337280    -0.18510
C297        C  0.03517722  0.14882262  0.01301425     0.09810
C298        C  0.02537453  0.15641614  0.04319567    -0.07310
C299        C  0.99949018  0.16092858  0.04209020    -0.18550
C300        C  0.48334813  0.15777063  0.01223501     0.09840
S301        S  0.06726415  0.14136812  0.51097389    -0.33510
S302        S  0.45171129  0.16569758  0.01324653    -0.33520
H303        H  0.45306180  0.17335359  0.47984154     0.27850
H304        H  0.06852611  0.13886719  0.97625641     0.27850
H305        H  0.02674743  0.14043972  0.46045564     0.18440
H306        H  0.49197508  0.16746714  0.06458141     0.18450
C307        C  0.50645270  0.15480059  0.30085920    -0.07390
C308        C  0.03603931  0.15764612  0.30330204    -0.18510
C309        C  0.05642146  0.16737229  0.27634607     0.09810
C310        C  0.04784540  0.17612749  0.24695665    -0.07310
C311        C  0.51973673  0.17624796  0.24609420    -0.18550
C312        C  0.49825544  0.16392849  0.27131178     0.09840
S313        S  0.09253335  0.16747699  0.28052881    -0.33510
S314        S  0.46008173  0.15775258  0.26105721    -0.33520
H315        H  0.44345357  0.14068932  0.28778684     0.27850
H316        H  0.10806087  0.18880782  0.25580045     0.27850
H317        H  0.04251461  0.15037191  0.32548250     0.18440
H318        H  0.51250966  0.18226899  0.22347492     0.18450
C319        C  0.35025519  0.50045031  0.05095277    -0.07390
C320        C  0.37770036  0.02885279  0.05581919    -0.18510
C321        C  0.39158367  0.04827993  0.02929443     0.09810
C322        C  0.37751153  0.03938933  0.49725935    -0.07310
C323        C  0.34848564  0.51250921  0.49333174    -0.18550
C324        C  0.33500985  0.49279364  0.51956917     0.09840
S325        S  0.42804857  0.08310989  0.03751168    -0.33510
S326        S  0.30022965  0.45635974  0.51039845    -0.33520
H327        H  0.28811582  0.45431421  0.04209419     0.27850
H328        H  0.42438685  0.09905308  0.01146979     0.27850
H329        H  0.38979301  0.03467206  0.07963750     0.18440
H330        H  0.33755898  0.50525369  0.46890287     0.18450
C331        C  0.36479233  0.01616899  0.29013031    -0.07390
C332        C  0.38381101  0.00452318  0.27920636    -0.18510
C333        C  0.37847011  0.98838583  0.24890904     0.09810
C334        C  0.35291940  0.48300799  0.22850694    -0.07310
C335        C  0.33250647  0.99283937  0.24047952    -0.18550
C336        C  0.33834471  0.00963763  0.27088709     0.09840
S337        S  0.40798678  0.47959150  0.23635857    -0.33510
S338        S  0.31288206  0.02426476  0.28221966    -0.33520
H339        H  0.33675501  0.05409034  0.29196277     0.27850
H340        H  0.38789137  0.44760665  0.23707165     0.27850
H341        H  0.40435241  0.00973914  0.29370773     0.18440
H342        H  0.31281750  0.48891339  0.22524574     0.18450
C343        C  0.01858021  0.08637249  0.40452833    -0.07390
C344        C  0.03370083  0.09222904  0.37426679    -0.18510
C345        C  0.06031621  0.09030987  0.37035726     0.09810
C346        C  0.07393015  0.08461673  0.39831475    -0.07310
C347        C  0.05730088  0.07583636  0.42774235    -0.18550
C348        C  0.02932219  0.07576745  0.43090501     0.09840
S349        S  0.07503013  0.09561833  0.32877663    -0.33510
S350        S  0.00847937  0.06071510  0.46852156    -0.33520
H351        H  0.00748907  0.08752268  0.47771797     0.27850
H352        H  0.07859757  0.06931016  0.32882568     0.27850
H353        H  0.02458501  0.09818520  0.35306425     0.18440
H354        H  0.06643364  0.06963618  0.44871984     0.18450
C355        C  0.33192693  0.09511903  0.36210868    -0.07390
C356        C  0.30747216  0.07472865  0.38184953    -0.18510
C357        C  0.27747544  0.06988511  0.37761309     0.09810
C358        C  0.27168791  0.08680200  0.35388248    -0.07310
C359        C  0.29649133  0.10776247  0.33471420    -0.18550
C360        C  0.32629010  0.11208143  0.33853931     0.09840
S361        S  0.24775878  0.04050476  0.40202293    -0.33510
S362        S  0.35613207  0.14013829  0.31312590    -0.33520
H363        H  0.37922453  0.15067685  0.33799723     0.27850
H364        H  0.22737840  0.02570146  0.37472440     0.27850
H365        H  0.31131132  0.06100116  0.39952825     0.18440
H366        H  0.29288931  0.12135568  0.31668039     0.18450
C367        C  0.48870347  0.33746926  0.47714845    -0.07390
C368        C  0.01935632  0.34392182  0.47539534    -0.18510
C369        C  0.03772209  0.35081274  0.50405840     0.09810
C370        C  0.02547343  0.35172344  0.03554747    -0.07310
C371        C  0.99381960  0.34145391  0.03769358    -0.18550
C372        C  0.47515685  0.33413968  0.00886663     0.09840
S373        S  0.07734424  0.36036271  0.49816455    -0.33510
S374        S  0.43438336  0.32125927  0.01329769    -0.33520
H375        H  0.43335702  0.31737923  0.54771331     0.27850
H376        H  0.08324328  0.35624161  0.03077854     0.27850
H377        H  0.02967646  0.34532385  0.45144052     0.18440
H378        H  0.48432560  0.34163232  0.06170851     0.18450
C379        C  0.01577629  0.38936834  0.21677195    -0.07390
C380        C  0.50332138  0.35848493  0.22613664    -0.18510
C381        C  0.48813444  0.34836203  0.25628209     0.09810
C382        C  0.48516777  0.36958285  0.27817268    -0.07310
C383        C  0.99686507  0.40015204  0.26828644    -0.18550
C384        C  0.01235014  0.41038632  0.23862097     0.09840
S385        S  0.47378444  0.30830909  0.26514037    -0.33510
S386        S  0.02812897  0.45108764  0.23174373    -0.33520
H387        H  0.05897643  0.45724949  0.23171702     0.27850
H388        H  0.44349945  0.30223062  0.27133058     0.27850
H389        H  0.50568293  0.34197237  0.21002363     0.18440
H390        H  0.99485716  0.41691808  0.28434921     0.18450
C391        C  0.40660385  0.48617167  0.38797327    -0.07390
C392        C  0.43448588  0.48784400  0.39846855    -0.18510
C393        C  0.43930106  0.46279286  0.39439631     0.09810
C394        C  0.41617032  0.43520890  0.37887480    -0.07310
C395        C  0.38783273  0.43260815  0.36943177    -0.18550
C396        C  0.38279692  0.45779272  0.37356567     0.09840
S397        S  0.47497776  0.46697894  0.41070162    -0.33510
S398        S  0.34600179  0.45203354  0.35916531    -0.33520
H399        H  0.35944747  0.97873025  0.34066317     0.27850
H400        H  0.46022525  0.43774714  0.42485446     0.27850
H401        H  0.45289882  0.50880902  0.41045609     0.18440
H402        H  0.36999704  0.41121910  0.35750041     0.18450
C403        C  0.42600819  0.24014733  0.38696853    -0.07390
C404        C  0.43881101  0.23451090  0.35845336    -0.18510
C405        C  0.44233133  0.20872525  0.35491834     0.09810
C406        C  0.43065951  0.18609426  0.37914230    -0.07310
C407        C  0.41699571  0.19095174  0.40741422    -0.18550
C408        C  0.41506239  0.21795481  0.41193010     0.09840
S409        S  0.46500431  0.20835480  0.32051882    -0.33510
S410        S  0.39851893  0.22244268  0.44987380    -0.33520
H411        H  0.42676079  0.24786019  0.46153044     0.27850
H412        H  0.48340724  0.20045973  0.33976493     0.27850
H413        H  0.44809123  0.25130684  0.33924580     0.18440
H414        H  0.40807580  0.17378286  0.42627413     0.18450
C415        C  0.08013927  0.49291612  0.39055361    -0.07390
C416        C  0.06708822  0.47973836  0.42111448    -0.18510
C417        C  0.04100379  0.44969076  0.42281461     0.09810
C418        C  0.02753055  0.43149573  0.39341084    -0.07310
C419        C  0.04010707  0.44466173  0.36300742    -0.18550
C420        C  0.06516926  0.47504716  0.36113076     0.09840
S421        S  0.02656444  0.43570513  0.46327098    -0.33510
S422        S  0.07548733  0.48969781  0.32014570    -0.33520
H423        H  0.07711361  0.01807939  0.32881155     0.27850
H424        H  0.51406055  0.40409131  0.45469078     0.27850
H425        H  0.07757993  0.49268573  0.44412948     0.18440
H426        H  0.02945101  0.43150151  0.34014082     0.18450
C427        C  0.32675199  0.24338441  0.37319485    -0.07390
C428        C  0.31695459  0.22256465  0.39928484    -0.18510
C429        C  0.28693031  0.19667255  0.40000218     0.09810
C430        C  0.26525797  0.19059376  0.37403366    -0.07310
C431        C  0.27481497  0.21108142  0.34779332    -0.18550
C432        C  0.30512939  0.23682906  0.34676420     0.09840
S433        S  0.27734878  0.17285743  0.43559314    -0.33510
S434        S  0.31435332  0.26035851  0.31108800    -0.33520
H435        H  0.34071992  0.25793436  0.30373065     0.27850
H436        H  0.24624202  0.16566085  0.43636732     0.27850
H437        H  0.33266904  0.22679971  0.41997708     0.18440
H438        H  0.25884449  0.20636061  0.32721119     0.18450
C439        C  0.35781045  0.34742333  0.45649868    -0.07390
C440        C  0.37382828  0.37874575  0.46630256    -0.18510
C441        C  0.37249693  0.38829349  0.99857512     0.09810
C442        C  0.35199573  0.36640566  0.02110266    -0.07310
C443        C  0.33403281  0.33516595  0.01045875    -0.18550
C444        C  0.33743042  0.32538492  0.47857828     0.09840
S445        S  0.40003668  0.42828915  0.00977096    -0.33510
S446        S  0.31686674  0.28455699  0.46781964    -0.33520
H447        H  0.34410950  0.28343703  0.46190925     0.27850
H448        H  0.40786866  0.42144947  0.04055637     0.27850
H449        H  0.39060033  0.39548196  0.44984668     0.18440
H450        H  0.31782689  0.31830550  0.02712755     0.18450
C451        C  0.36855529  0.38399616  0.22161057    -0.07390
C452        C  0.38787765  0.37108814  0.22317786    -0.18510
C453        C  0.39056852  0.35780939  0.25212514     0.09810
C454        C  0.37525514  0.35915183  0.28109255    -0.07310
C455        C  0.35548338  0.37163729  0.27933882    -0.18550
C456        C  0.35137085  0.38331371  0.24979400     0.09840
S457        S  0.41209747  0.33762509  0.24967175    -0.33510
S458        S  0.32574736  0.39916330  0.25046865    -0.33520
H459        H  0.30922805  0.38327910  0.22133718     0.27850
H460        H  0.39514944  0.31610148  0.27377311     0.27850
H461        H  0.39997411  0.37018959  0.20122916     0.18560
H462        H  0.34374392  0.37304860  0.30134997     0.18450
O463        O  0.44576281  0.41557545  0.85350083    -0.81400
O464        O  0.45092633  0.34258007  0.94719438    -0.81420
O465        O  0.36131166  0.32793451  0.90246859    -0.81430
O466        O  0.49980632  0.37725502  0.87773981    -0.81370
O467        O  0.39975419  0.34443101  0.93780356    -0.81500
O468        O  0.47299043  0.39744438  0.89932089    -0.81410
O469        O  0.47784397  0.32685342  0.91834752    -0.81400
O470        O  0.40318628  0.38221756  0.87917797    -0.81440
C471        C  0.42201556  0.40994391  0.86987432     1.08290
C472        C  0.47195607  0.33579669  0.94595677     1.08180
C473        C  0.37297211  0.33897958  0.93091545     1.08310
C474        C  0.49899112  0.40008890  0.89219002     1.08190
O475        O  0.47184043  0.38343666  0.82994097    -0.81400
O476        O  0.36922539  0.28178265  0.90667239    -0.81480
O477        O  0.36199391  0.33950508  0.83568791    -0.81410
O478        O  0.43662633  0.28756773  0.86520296    -0.81390
O479        O  0.42238305  0.28055701  0.91709441    -0.81440
O480        O  0.41127209  0.36008342  0.82126413    -0.81410
O481        O  0.46052460  0.33554159  0.82328896    -0.81370
O482        O  0.37050096  0.29097365  0.85354476    -0.81440
Co483      Co  0.44044932  0.37679225  0.86393358     1.51530
Co484      Co  0.41161075  0.31409191  0.92515069     1.51690
Co485      Co  0.39036634  0.33621864  0.86443847     1.51570
Co486      Co  0.46611696  0.33174508  0.87132359     1.51470
O487        O  0.42829976  0.33606916  0.88265843    -1.43330
C488        C  0.47153650  0.36212483  0.81179588     1.08220
C489        C  0.35753926  0.27311934  0.87738026     1.08310
C490        C  0.38277478  0.35211452  0.81410202     1.08240
C491        C  0.42738360  0.27050270  0.88985401     1.08220
O492        O  0.46088537  0.11173802  0.81945500    -0.81400
O493        O  0.42823031  0.03871678  0.90341890    -0.81420
O494        O  0.98663329  0.10540791  0.88437757    -0.81430
O495        O  0.36202554  0.03996035  0.84237146    -0.81370
O496        O  0.47429430  0.08303740  0.93043862    -0.81500
O497        O  0.40523116  0.06095637  0.81450189    -0.81410
O498        O  0.37987206  0.01551392  0.88959544    -0.81400
O499        O  0.48419902  0.15043032  0.85513467    -0.81440
C500        C  0.48326554  0.13828940  0.82664282     1.08290
C501        C  0.40437180  0.01461614  0.89360514     1.08180
C502        C  0.99214546  0.09175555  0.90669390     1.08310
C503        C  0.37768493  0.03983247  0.81745006     1.08190
O504        O  0.37551113  0.09505848  0.83784578    -0.81400
O505        O  0.44702521  0.11900998  0.94832039    -0.81480
O506        O  0.43583601  0.14509688  0.90023381    -0.81410
O507        O  0.38070780  0.05797572  0.94223707    -0.81390
O508        O  0.42213666  0.05856642  0.96433854    -0.81440
O509        O  0.43175909  0.14616782  0.84650199    -0.81410
O510        O  0.36955721  0.08906087  0.89123462    -0.81370
O511        O  0.49039362  0.15286517  0.92444749    -0.81440
Co512      Co  0.41888671  0.10232545  0.83235546     1.51530
Co513      Co  0.43271606  0.07698993  0.92303024     1.51690
Co514      Co  0.46019009  0.12405040  0.89361059     1.51570
Co515      Co  0.37748165  0.05430749  0.89035988     1.51470
O516        O  0.42405482  0.08642090  0.87685896    -1.43330
C517        C  0.36131209  0.09465357  0.86407965     1.08220
C518        C  0.47562599  0.14143783  0.95073610     1.08310
C519        C  0.43230285  0.15747749  0.87523796     1.08240
C520        C  0.39454034  0.05306853  0.96669733     1.08220
O521        O  0.02908691  0.40046432  0.61430826    -0.81400
O522        O  0.15981803  0.48304544  0.57153135    -0.81420
O523        O  0.09335327  0.48654829  0.64999062    -0.81430
O524        O  0.06625193  0.39910279  0.55475043    -0.81370
O525        O  0.12554422  0.50310271  0.60833300    -0.81500
O526        O  0.04520427  0.36438439  0.59274465    -0.81410
O527        O  0.11832195  0.45176131  0.54234462    -0.81400
O528        O  0.05210960  0.44817752  0.60971971    -0.81440
C529        C  0.02739878  0.42360118  0.60627371     1.08290
C530        C  0.14524117  0.47461321  0.54423511     1.08180
C531        C  0.10746910  0.50655405  0.62808951     1.08310
C532        C  0.04643389  0.37217878  0.56260389     1.08190
O533        O  0.09439635  0.38055944  0.64125158    -0.81400
O534        O  0.14133204  0.48215053  0.66469980    -0.81480
O535        O  0.04498223  0.42738407  0.67657181    -0.81410
O536        O  0.15478003  0.42939770  0.57688519    -0.81390
O537        O  0.16424681  0.45206391  0.62698332    -0.81440
O538        O  0.03947651  0.38003090  0.66851682    -0.81410
O539        O  0.10174556  0.37668101  0.58800378    -0.81370
O540        O  0.10307765  0.43893314  0.68005109    -0.81440
Co541      Co  0.06680664  0.39775832  0.62973455     1.51530
Co542      Co  0.14436967  0.47669038  0.61732135     1.51690
Co543      Co  0.07705738  0.44070812  0.64266447     1.51570
Co544      Co  0.10954113  0.41561020  0.56756238     1.51470
O545        O  0.10278665  0.43674601  0.60749597    -1.43330
C546        C  0.09935513  0.36663706  0.61688728     1.08220
C547        C  0.12730397  0.46439229  0.68753603     1.08310
C548        C  0.03378244  0.39919510  0.68567281     1.08240
C549        C  0.17019644  0.43789944  0.60422162     1.08220
O550        O  0.15609164  0.11041665  0.82292725    -0.81400
O551        O  0.12484766  0.03399672  0.86402546    -0.81420
O552        O  0.17570970  0.06153538  0.81497825    -0.81430
O553        O  0.12001273  0.09048965  0.92458119    -0.81370
O554        O  0.16828654  0.02025732  0.84103616    -0.81500
O555        O  0.12032278  0.09871948  0.87164327    -0.81410
O556        O  0.12299511  0.03772229  0.91827345    -0.81400
O557        O  0.20344256  0.12549202  0.81187960    -0.81440
C558        C  0.17707869  0.12014530  0.80239190     1.08290
C559        C  0.11034443  0.02353479  0.89067163     1.08180
C560        C  0.16832846  0.03255963  0.81422512     1.08310
C561        C  0.10615055  0.09077036  0.89819811     1.08190
O562        O  0.16625364  0.14788279  0.91332656    -0.81400
O563        O  0.21890829  0.07120468  0.86982961    -0.81480
O564        O  0.23401902  0.13578594  0.87510505    -0.81410
O565        O  0.18941687  0.07374305  0.93833687    -0.81390
O566        O  0.16984681  0.03296223  0.90546522    -0.81440
O567        O  0.20964145  0.16115667  0.86304626    -0.81410
O568        O  0.18477334  0.12571380  0.94450907    -0.81370
O569        O  0.23748165  0.09900196  0.82571748    -0.81440
Co570      Co  0.16383696  0.12776683  0.86807714     1.51530
Co571      Co  0.17092698  0.05482328  0.86553589     1.51690
Co572      Co  0.20416983  0.09885956  0.84818897     1.51570
Co573      Co  0.15603345  0.08281182  0.92886758     1.51470
O574        O  0.17198302  0.09387460  0.88181925    -1.43330
C575        C  0.17676798  0.14583952  0.94130130     1.08220
C576        C  0.24112953  0.08480128  0.84911650     1.08310
C577        C  0.23454150  0.16117279  0.87146155     1.08240
C578        C  0.18294750  0.04621941  0.93260577     1.08220
O579        O  0.03751489  0.10498299  0.66918077    -0.81400
O580        O  0.11910415  0.20140306  0.54947800    -0.81420
O581        O  0.03950137  0.17858067  0.59854712    -0.81430
O582        O  0.12354428  0.13920150  0.62617415    -0.81370
O583        O  0.06585229  0.15870879  0.57772145    -0.81500
O584        O  0.07420174  0.12118871  0.61691486    -0.81410
O585        O  0.14525523  0.18837851  0.58415530    -0.81400
O586        O  0.02407386  0.13916053  0.65119971    -0.81440
C587        C  0.01723359  0.11143931  0.65921977     1.08290
C588        C  0.13960559  0.19362669  0.55427023     1.08180
C589        C  0.04351220  0.16349516  0.57507192     1.08310
C590        C  0.09724979  0.11702815  0.61678942     1.08190
O591        O  0.10073640  0.13366188  0.68296153    -0.81400
O592        O  0.08878779  0.22773398  0.58939463    -0.81480
O593        O  0.06247470  0.19622795  0.69375866    -0.81410
O594        O  0.16177764  0.22940094  0.64538033    -0.81390
O595        O  0.14013899  0.23689577  0.60310293    -0.81440
O596        O  0.06723770  0.15660710  0.70413858    -0.81410
O597        O  0.13978425  0.18071351  0.68385365    -0.81370
O598        O  0.08079653  0.23101642  0.64226744    -0.81440
Co599      Co  0.07116316  0.14231624  0.65800606     1.51530
Co600      Co  0.10379639  0.19606284  0.59321682     1.51690
Co601      Co  0.05552027  0.18631116  0.64609710     1.51570
Co602      Co  0.13917977  0.18474800  0.63563541     1.51470
O603        O  0.09644359  0.18393193  0.63997817    -1.43330
C604        C  0.12686395  0.15401879  0.69511749     1.08220
C605        C  0.08732293  0.24331782  0.61466896     1.08310
C606        C  0.06188015  0.17762358  0.71405774     1.08240
C607        C  0.16071875  0.24733715  0.62520648     1.08220
O608        O  0.40312313  0.43647654  0.60840749    -0.81400
O609        O  0.34949708  0.45509991  0.56493392    -0.81420
O610        O  0.33444377  0.35943962  0.57761876    -0.81430
O611        O  0.38370460  0.48604629  0.63231063    -0.81370
O612        O  0.35079086  0.40387573  0.55536565    -0.81500
O613        O  0.41647318  0.47695670  0.66082718    -0.81410
O614        O  0.33214228  0.47469546  0.60253292    -0.81400
O615        O  0.38387255  0.38799963  0.62183610    -0.81440
C616        C  0.40574907  0.41246119  0.60965169     1.08290
C617        C  0.34366256  0.47590227  0.57421160     1.08180
C618        C  0.34614731  0.37693905  0.55335293     1.08310
C619        C  0.41047748  0.49535419  0.64603490     1.08190
O620        O  0.35880486  0.45151692  0.68565426    -0.81400
O621        O  0.28691435  0.36724418  0.57893841    -0.81480
O622        O  0.33922915  0.38099501  0.67438337    -0.81410
O623        O  0.29236587  0.42425496  0.64397253    -0.81390
O624        O  0.28692418  0.42069993  0.58956643    -0.81440
O625        O  0.38715759  0.41728051  0.67545282    -0.81410
O626        O  0.33769012  0.47986425  0.67159813    -0.81370
O627        O  0.29467028  0.35829265  0.62994347    -0.81440
Co628      Co  0.37958686  0.44350255  0.64383252     1.51530
Co629      Co  0.32016413  0.41201886  0.57421577     1.51690
Co630      Co  0.33804062  0.37411777  0.62594761     1.51570
Co631      Co  0.33789196  0.45135107  0.63964394     1.51470
O632        O  0.34078956  0.41584206  0.61838845    -1.43330
C633        C  0.34943575  0.47092742  0.69369639     1.08220
C634        C  0.27665642  0.35349484  0.60597125     1.08310
C635        C  0.36479431  0.39517041  0.68947002     1.08240
C636        C  0.27644906  0.42136235  0.61806953     1.08220
C637        C  0.48600753  0.08603169  0.65338796    -0.07390
C638        C  0.47992909  0.06935253  0.62301040    -0.18510
C639        C  0.45382296  0.04008314  0.61870011     0.09810
C640        C  0.43384442  0.02767651  0.64552231    -0.07310
C641        C  0.43865846  0.04537572  0.67489018    -0.18550
C642        C  0.46467772  0.07458879  0.67909122     0.09840
S643        S  0.44927541  0.01875679  0.58003437    -0.33510
S644        S  0.47082444  0.09501683  0.71847062    -0.33520
H645        H  0.48648819  0.12445443  0.70499424     0.27850
H646        H  0.41708457  0.49911332  0.58122526     0.27850
H647        H  0.49665509  0.07830999  0.60337625     0.18440
H648        H  0.42289284  0.03574839  0.69524204     0.18450
C649        C  0.24400174  0.33008353  0.61081228    -0.07390
C650        C  0.23572554  0.31931252  0.64326343    -0.18510
C651        C  0.20685991  0.29449706  0.64987374     0.09810
C652        C  0.18571437  0.27942766  0.62347628    -0.07310
C653        C  0.19223473  0.29243497  0.59199090    -0.18550
C654        C  0.22131043  0.31725051  0.58520471     0.09840
S655        S  0.19878797  0.28284386  0.69221372    -0.33510
S656        S  0.22843514  0.32923075  0.54302750    -0.33520
H657        H  0.25240683  0.32216777  0.53947521     0.27850
H658        H  0.16665840  0.27132934  0.68912049     0.27850
H659        H  0.25201308  0.32992055  0.66395682     0.18440
H660        H  0.17575709  0.28136471  0.57152054     0.18450
C661        C  0.14267124  0.14559415  0.72061996    -0.07390
C662        C  0.12705970  0.11501371  0.73109592    -0.18510
C663        C  0.14003834  0.10505873  0.75483457     0.09810
C664        C  0.16937494  0.12595405  0.76925919    -0.07310
C665        C  0.18615248  0.15587508  0.75746154    -0.18550
C666        C  0.17308540  0.16609722  0.73362421     0.09840
S667        S  0.11716856  0.06567553  0.76738646    -0.33510
S668        S  0.19598398  0.20596163  0.72267976    -0.33520
H669        H  0.17322167  0.21334106  0.73252345     0.27850
H670        H  0.14271435  0.06109015  0.76770330     0.27850
H671        H  0.10417520  0.09859118  0.72120286     0.18440
H672        H  0.20833160  0.17224352  0.76900549     0.18450
C673        C  0.15548546  0.18762099  0.52579204    -0.07390
C674        C  0.16768153  0.16790225  0.53065347    -0.18510
C675        C  0.17772113  0.15634196  0.50421343     0.09810
C676        C  0.17496393  0.16379924  0.97114463    -0.07310
C677        C  0.16531083  0.18572974  0.96666353    -0.18550
C678        C  0.15628088  0.19811058  0.49345259     0.09840
S679        S  0.19194753  0.13073254  0.51489730    -0.33510
S680        S  0.14637426  0.22737866  0.98465827    -0.33520
H681        H  0.15949861  0.24476424  0.51442561     0.27850
H682        H  0.21862502  0.14598167  0.99566989     0.27850
H683        H  0.16828537  0.16020078  0.55529459     0.18440
H684        H  0.16394423  0.19277254  0.94190751     0.18450
C685        C  0.16061785  0.49121532  0.51466937    -0.07390
C686        C  0.18400765  0.02240661  0.51857363    -0.18510
C687        C  0.19612577  0.04054428  0.49110607     0.09810
C688        C  0.18353702  0.02746092  0.95941539    -0.07310
C689        C  0.16395327  0.49529967  0.95536913    -0.18550
C690        C  0.15245105  0.47702368  0.98262064     0.09840
S691        S  0.22662498  0.08013508  0.49814433    -0.33510
S692        S  0.12692141  0.43615688  0.97444960    -0.33520
H693        H  0.13907547  0.42716841  0.50062043     0.27850
H694        H  0.23980180  0.08241451  0.46679718     0.27850
H695        H  0.19202408  0.03310363  0.54311372     0.18440
H696        H  0.15538627  0.48450354  0.93096742     0.18450
C697        C  0.13902410  0.47786172  0.72192601    -0.07390
C698        C  0.16458067  0.00850978  0.72378543    -0.18510
C699        C  0.17425631  0.02649681  0.75320058     0.09810
C700        C  0.15905091  0.01368159  0.78268131    -0.07310
C701        C  0.13526751  0.98231125  0.78194178    -0.18550
C702        C  0.12503075  0.46432583  0.75195378     0.09840
S703        S  0.20685175  0.06561677  0.75253731    -0.33510
S704        S  0.09456911  0.42464391  0.75385825    -0.33520
H705        H  0.10797917  0.41331293  0.73069407     0.27850
H706        H  0.20856771  0.06815318  0.71791020     0.27850
H707        H  0.17696812  0.01925271  0.70168429     0.18440
H708        H  0.12421799  0.47186471  0.80479190     0.18450
C709        C  0.10231366  0.03367469  0.62470675    -0.07390
C710        C  0.10908561  0.04891579  0.59436736    -0.18510
C711        C  0.10454649  0.07429964  0.58952164     0.09810
C712        C  0.09313282  0.08525482  0.61542251    -0.07310
C713        C  0.08449640  0.06892528  0.64484116    -0.18550
C714        C  0.08946020  0.04397943  0.65006063     0.09840
S715        S  0.11311672  0.09138440  0.54955549    -0.33510
S716        S  0.08058262  0.02783836  0.69049922    -0.33520
H717        H  0.10922196  0.02895034  0.69473476     0.27850
H718        H  0.09517215  0.10592947  0.55271681     0.27850
H719        H  0.11791553  0.04097363  0.57407374     0.18440
H720        H  0.07560701  0.07691147  0.66499020     0.18450
C721        C  0.09250972  0.27560370  0.61376884    -0.07390
C722        C  0.10489074  0.29534933  0.64255851    -0.18510
C723        C  0.10750006  0.32492580  0.64531119     0.09810
C724        C  0.09767548  0.33564618  0.61842125    -0.07310
C725        C  0.08524923  0.31560382  0.58983029    -0.18550
C726        C  0.08239553  0.28615458  0.58728068     0.09840
S727        S  0.12300611  0.34681141  0.68395515    -0.33510
S728        S  0.06352399  0.26243882  0.55050229    -0.33520
H729        H  0.04426214  0.23558677  0.56774845     0.27850
H730        H  0.13396443  0.37649505  0.67207181     0.27850
H731        H  0.11244363  0.28750251  0.66348410     0.18440
H732        H  0.07621831  0.32229245  0.56932960     0.18450
C733        C  0.19734633  0.43383363  0.60870930    -0.07390
C734        C  0.19428057  0.40830767  0.62557737    -0.18510
C735        C  0.21985777  0.40422185  0.63139754     0.09810
C736        C  0.24912799  0.42576662  0.61913584    -0.07310
C737        C  0.25198148  0.45141914  0.60253339    -0.18550
C738        C  0.22668611  0.45579035  0.59746260     0.09840
S739        S  0.21286721  0.37056446  0.65328546    -0.33510
S740        S  0.23306605  0.48936182  0.57558142    -0.33520
H741        H  0.21499073  0.49662655  0.59672671     0.27850
H742        H  0.24323320  0.38220954  0.66541615     0.27850
H743        H  0.17171381  0.39126683  0.63401576     0.18440
H744        H  0.27427680  0.46830350  0.59318449     0.18450
C745        C  0.43597133  0.41431188  0.60081151    -0.07390
C746        C  0.46259819  0.44373023  0.59864877    -0.18510
C747        C  0.49255349  0.44754636  0.59774629     0.09810
C748        C  0.49671412  0.42140094  0.59888475    -0.07310
C749        C  0.46990208  0.39187849  0.59806499    -0.18550
C750        C  0.43994627  0.38803227  0.59839572     0.09840
S751        S  0.02437779  0.48664224  0.59776353    -0.33510
S752        S  0.40795247  0.34884058  0.59603942    -0.33520
H753        H  0.39018892  0.35565753  0.57436469     0.27850
H754        H  0.03274554  0.48551710  0.63079727     0.27850
H755        H  0.46036586  0.46429233  0.59975478     0.18440
H756        H  0.47216550  0.37138287  0.59849868     0.18450
C757        C  0.49304209  0.14978742  0.98263399    -0.07390
C758        C  0.01934249  0.14642261  0.98337251    -0.18510
C759        C  0.03517751  0.14882377  0.51301457     0.09810
C760        C  0.02537475  0.15641732  0.54319593    -0.07310
C761        C  0.99949024  0.16092949  0.54209042    -0.18550
C762        C  0.48334838  0.15777097  0.51223582     0.09840
S763        S  0.06726382  0.14136691  0.01097346    -0.33510
S764        S  0.45171161  0.16569803  0.51324720    -0.33520
H765        H  0.45306189  0.17335388  0.97984109     0.27850
H766        H  0.06852620  0.13886787  0.47625687     0.27850
H767        H  0.02674704  0.14043860  0.96045533     0.18440
H768        H  0.49197579  0.16746832  0.56458216     0.18450
C769        C  0.50645318  0.15480080  0.80085899    -0.07390
C770        C  0.03603900  0.15764586  0.80330193    -0.18510
C771        C  0.05642133  0.16737259  0.77634614     0.09810
C772        C  0.04784536  0.17612816  0.74695692    -0.07310
C773        C  0.51973865  0.17624987  0.74609477    -0.18550
C774        C  0.49825683  0.16393000  0.77131189     0.09840
S775        S  0.09253332  0.16747748  0.78052880    -0.33510
S776        S  0.46008357  0.15775509  0.76105704    -0.33520
H777        H  0.44345481  0.14069114  0.78778608     0.27850
H778        H  0.10806092  0.18880878  0.75580087     0.27850
H779        H  0.04251429  0.15037150  0.82548228     0.18440
H780        H  0.51251227  0.18227191  0.72347571     0.18450
C781        C  0.35025463  0.50045075  0.55095320    -0.07390
C782        C  0.37770001  0.02885319  0.55581855    -0.18510
C783        C  0.39158330  0.04828028  0.52929379     0.09810
C784        C  0.37751203  0.03938896  0.99725992    -0.07310
C785        C  0.34848680  0.51250917  0.99333128    -0.18550
C786        C  0.33501064  0.49279350  0.01956860     0.09840
S787        S  0.42804839  0.08311006  0.53751088    -0.33510
S788        S  0.30023024  0.45635985  0.01039755    -0.33520
H789        H  0.28811506  0.45431475  0.54209492     0.27850
H790        H  0.42438679  0.09905328  0.51146894     0.27850
H791        H  0.38979275  0.03467241  0.57963681     0.18440
H792        H  0.33756029  0.50525393  0.96890231     0.18450
C793        C  0.36479273  0.01616916  0.79013104    -0.07390
C794        C  0.38381243  0.00452467  0.77920687    -0.18510
C795        C  0.37847298  0.98838901  0.74890876     0.09810
C796        C  0.35292112  0.48300891  0.72850722    -0.07310
C797        C  0.33250780  0.99284001  0.74047971    -0.18550
C798        C  0.33834505  0.00963736  0.77088771     0.09840
S799        S  0.40798828  0.47959181  0.73635762    -0.33510
S800        S  0.31288119  0.02426294  0.78222063    -0.33520
H801        H  0.33675332  0.05408880  0.79196424     0.27850
H802        H  0.38789288  0.44760701  0.73707163     0.27850
H803        H  0.40435392  0.00974108  0.79370836     0.18440
H804        H  0.31281953  0.48891489  0.72524693     0.18450
C805        C  0.01858056  0.08637267  0.90452827    -0.07390
C806        C  0.03370183  0.09223038  0.87426710    -0.18510
C807        C  0.06031736  0.09031155  0.87035767     0.09810
C808        C  0.07393061  0.08461724  0.89831494    -0.07310
C809        C  0.05730086  0.07583601  0.92774215    -0.18550
C810        C  0.02932214  0.07576701  0.93090470     0.09840
S811        S  0.07503242  0.09562214  0.82877748    -0.33510
S812        S  0.00847876  0.06071372  0.96852073    -0.33520
H813        H  0.00748888  0.08752136  0.97771807     0.27850
H814        H  0.07859802  0.06931281  0.82882442     0.27850
H815        H  0.02458642  0.09818723  0.85306475     0.18440
H816        H  0.06643320  0.06963510  0.94871941     0.18450
C817        C  0.33192702  0.09511917  0.86210984    -0.07390
C818        C  0.30747227  0.07472883  0.88185074    -0.18510
C819        C  0.27747551  0.06988518  0.87761423     0.09810
C820        C  0.27168793  0.08680194  0.85388349    -0.07310
C821        C  0.29649132  0.10776240  0.83471520    -0.18550
C822        C  0.32629011  0.11208146  0.83854038     0.09840
S823        S  0.24775886  0.04050487  0.90202413    -0.33510
S824        S  0.35613198  0.14013826  0.81312684    -0.33520
H825        H  0.37922439  0.15067706  0.83799823     0.27850
H826        H  0.22737855  0.02570141  0.87472559     0.27850
H827        H  0.31131147  0.06100141  0.89952952     0.18440
H828        H  0.29288927  0.12135552  0.81668129     0.18450
C829        C  0.48870348  0.33746928  0.97714834    -0.07390
C830        C  0.01935627  0.34392184  0.97539502    -0.18510
C831        C  0.03772185  0.35081304  0.00405840     0.09810
C832        C  0.02547401  0.35172347  0.53554754    -0.07310
C833        C  0.99382026  0.34145410  0.53769420    -0.18550
C834        C  0.47515690  0.33413974  0.50886677     0.09840
S835        S  0.07734408  0.36036314  0.99816513    -0.33510
S836        S  0.43438346  0.32125950  0.51329793    -0.33520
H837        H  0.43335686  0.31737882  0.04771304     0.27850
H838        H  0.08324415  0.35624212  0.53077804     0.27850
H839        H  0.02967666  0.34532393  0.95144035     0.18440
H840        H  0.48432575  0.34163246  0.56170864     0.18450
C841        C  0.01577674  0.38936922  0.71677018    -0.07390
C842        C  0.50332141  0.35848413  0.72613649    -0.18510
C843        C  0.48813432  0.34836119  0.75628185     0.09810
C844        C  0.48516765  0.36958202  0.77817240    -0.07310
C845        C  0.99686475  0.40015138  0.76828510    -0.18550
C846        C  0.01235032  0.41038657  0.73861988     0.09840
S847        S  0.47378407  0.30830819  0.76514006    -0.33510
S848        S  0.02812948  0.45108812  0.73174369    -0.33520
H849        H  0.05897679  0.45724960  0.73171518     0.27850
H850        H  0.44349916  0.30222995  0.77133035     0.27850
H851        H  0.50568300  0.34197160  0.71002346     0.18440
H852        H  0.99485652  0.41691699  0.78434826     0.18450
C853        C  0.40660501  0.48617161  0.88797402    -0.07390
C854        C  0.43448674  0.48784346  0.89846955    -0.18510
C855        C  0.43930168  0.46279224  0.89439681     0.09810
C856        C  0.41617096  0.43520869  0.87887468    -0.07310
C857        C  0.38783352  0.43260830  0.86943163    -0.18550
C858        C  0.38279797  0.45779299  0.87356597     0.09840
S859        S  0.47497809  0.46697771  0.91070221    -0.33510
S860        S  0.34600324  0.45203456  0.85916520    -0.33520
H861        H  0.35944692  0.97872898  0.84066277     0.27850
H862        H  0.46022506  0.43774589  0.92485500     0.27850
H863        H  0.45289963  0.50880817  0.91045763     0.18440
H864        H  0.36999782  0.41121950  0.85749986     0.18450
C865        C  0.42600803  0.24014726  0.88696877    -0.07390
C866        C  0.43881108  0.23451103  0.85845368    -0.18510
C867        C  0.44233153  0.20872549  0.85491864     0.09810
C868        C  0.43065953  0.18609436  0.87914241    -0.07310
C869        C  0.41699553  0.19095163  0.90741428    -0.18550
C870        C  0.41506216  0.21795467  0.91193025     0.09840
S871        S  0.46500500  0.20835546  0.82051946    -0.33510
S872        S  0.39851854  0.22244239  0.94987389    -0.33520
H873        H  0.42676033  0.24785992  0.96153065     0.27850
H874        H  0.48340766  0.20046017  0.83976574     0.27850
H875        H  0.44809143  0.25130708  0.83924623     0.18440
H876        H  0.40807552  0.17378263  0.92627406     0.18450
C877        C  0.08013922  0.49291042  0.89055144    -0.07390
C878        C  0.06708927  0.47973207  0.92111237    -0.18510
C879        C  0.04100316  0.44968589  0.92281215     0.09810
C880        C  0.02752755  0.43149301  0.89340787    -0.07310
C881        C  0.04010236  0.44466021  0.86300428    -0.18550
C882        C  0.06516601  0.47504483  0.86112825     0.09840
S883        S  0.02656459  0.43569955  0.96326856    -0.33510
S884        S  0.07548171  0.48970000  0.82014447    -0.33520
H885        H  0.07711347  0.01807967  0.82881185     0.27850
H886        H  0.51406115  0.40409090  0.95468984     0.27850
H887        H  0.07758313  0.49267777  0.94412759     0.18440
H888        H  0.02944407  0.43150178  0.84013746     0.18450
C889        C  0.32675192  0.24338430  0.87319501    -0.07390
C890        C  0.31695428  0.22256491  0.89928537    -0.18510
C891        C  0.28692998  0.19667286  0.90000275     0.09810
C892        C  0.26525783  0.19059370  0.87403390    -0.07310
C893        C  0.27481506  0.21108098  0.84779320    -0.18550
C894        C  0.30512951  0.23682859  0.84676405     0.09840
S895        S  0.27734815  0.17285824  0.93559414    -0.33510
S896        S  0.31435376  0.26035747  0.81108734    -0.33520
H897        H  0.34072047  0.25793326  0.80373077     0.27850
H898        H  0.24624141  0.16566177  0.93636783     0.27850
H899        H  0.33266857  0.22680023  0.91997786     0.18440
H900        H  0.25884474  0.20635987  0.82721082     0.18450
C901        C  0.35781054  0.34742337  0.95649827    -0.07390
C902        C  0.37382838  0.37874576  0.96630226    -0.18510
C903        C  0.37249660  0.38829362  0.49857530     0.09810
C904        C  0.35199525  0.36640588  0.52110281    -0.07310
C905        C  0.33403242  0.33516613  0.51045903    -0.18550
C906        C  0.33743061  0.32538488  0.97857786     0.09840
S907        S  0.40003624  0.42828932  0.50977103    -0.33510
S908        S  0.31686693  0.28455700  0.96781901    -0.33520
H909        H  0.34410980  0.28343699  0.96190950     0.27850
H910        H  0.40786815  0.42144975  0.54055654     0.27850
H911        H  0.39060033  0.39548204  0.94984636     0.18440
H912        H  0.31782642  0.31830574  0.52712782     0.18450
C913        C  0.36855559  0.38399652  0.72161042    -0.07390
C914        C  0.38787779  0.37108829  0.72317752    -0.18510
C915        C  0.39056872  0.35780949  0.75212476     0.09810
C916        C  0.37525551  0.35915201  0.78109227    -0.07310
C917        C  0.35548398  0.37163775  0.77933876    -0.18550
C918        C  0.35137145  0.38331431  0.74979404     0.09840
S919        S  0.41209754  0.33762507  0.74967116    -0.33510
S920        S  0.32574842  0.39916445  0.75046908    -0.33520
H921        H  0.30922906  0.38328081  0.72133744     0.27850
H922        H  0.39514956  0.31610147  0.77377254     0.27850
H923        H  0.39997407  0.37018962  0.70122872     0.18560
H924        H  0.34374472  0.37304919  0.80135002     0.18450
O925        O  0.44576091  0.91557518  0.35350029    -0.81400
O926        O  0.45092672  0.84258099  0.44719400    -0.81420
O927        O  0.36131120  0.82793396  0.40246929    -0.81430
O928        O  0.49980533  0.87725561  0.37773918    -0.81370
O929        O  0.39975419  0.84443128  0.43780377    -0.81500
O930        O  0.47298895  0.89744446  0.39932025    -0.81410
O931        O  0.47784414  0.82685422  0.41834703    -0.81400
O932        O  0.40318485  0.88221723  0.37917805    -0.81440
C933        C  0.42201384  0.90994356  0.36987417     1.08290
C934        C  0.47195637  0.83579751  0.44595634     1.08180
C935        C  0.37297196  0.83897951  0.43091590     1.08310
C936        C  0.49898975  0.90008925  0.39218950     1.08190
O937        O  0.47183874  0.88343656  0.32994039    -0.81400
O938        O  0.36922578  0.78178283  0.40667307    -0.81480
O939        O  0.36199194  0.83950375  0.33568903    -0.81410
O940        O  0.43662619  0.78756805  0.36520287    -0.81390
O941        O  0.42238357  0.78055761  0.41709452    -0.81440
O942        O  0.41126978  0.86008303  0.32126377    -0.81410
O943        O  0.46052337  0.83554161  0.32328875    -0.81370
O944        O  0.37050093  0.79097349  0.35354534    -0.81440
Co945      Co  0.44044775  0.87679211  0.36393307     1.51530
Co946      Co  0.41161102  0.81409239  0.42515086     1.51690
Co947      Co  0.39036545  0.83621834  0.36443879     1.51570
Co948      Co  0.46611644  0.83174553  0.37132322     1.51470
O949        O  0.42829917  0.83606934  0.38265830    -1.43330
C950        C  0.47153489  0.86212470  0.31179546     1.08220
C951        C  0.35753968  0.77311927  0.37738098     1.08310
C952        C  0.38277200  0.85211308  0.31410237     1.08240
C953        C  0.42738389  0.77050318  0.38985405     1.08220
O954        O  0.46088565  0.61173843  0.31945466    -0.81400
O955        O  0.42822984  0.53871696  0.40342123    -0.81420
O956        O  0.98663294  0.60540913  0.38438188    -0.81430
O957        O  0.36202580  0.53996141  0.34237081    -0.81370
O958        O  0.47429443  0.58303783  0.43043862    -0.81500
O959        O  0.40523145  0.56095713  0.31450153    -0.81410
O960        O  0.37987259  0.51551445  0.38959336    -0.81400
O961        O  0.48419976  0.65043056  0.35513447    -0.81440
C962        C  0.48326604  0.63828964  0.32664256     1.08290
C963        C  0.40437204  0.51461664  0.39360529     1.08180
C964        C  0.99214571  0.59175625  0.40669726     1.08310
C965        C  0.37768516  0.53983334  0.31744952     1.08190
O966        O  0.37551175  0.59505951  0.33784640    -0.81400
O967        O  0.44702613  0.61901143  0.44832045    -0.81480
O968        O  0.43583700  0.64509756  0.40023381    -0.81410
O969        O  0.38070744  0.55797441  0.44223653    -0.81390
O970        O  0.42213752  0.55856863  0.46433981    -0.81440
O971        O  0.43175998  0.64616862  0.34650207    -0.81410
O972        O  0.36955798  0.58906135  0.39123518    -0.81370
O973        O  0.49039472  0.65286565  0.42444728    -0.81440
Co974      Co  0.41888722  0.60232617  0.33235553     1.51530
Co975      Co  0.43271616  0.57699089  0.42303101     1.51690
Co976      Co  0.46019089  0.62405080  0.39361048     1.51570
Co977      Co  0.37748214  0.55430784  0.39035926     1.51470
O978        O  0.42405552  0.58642130  0.37685889    -1.43330
C979        C  0.36131279  0.59465435  0.36408044     1.08220
C980        C  0.47562708  0.64143889  0.45073605     1.08310
C981        C  0.43230383  0.65747826  0.37523805     1.08240
C982        C  0.39454066  0.55306929  0.46669771     1.08220
O983        O  0.02908494  0.90046017  0.11430953    -0.81400
O984        O  0.15981525  0.98304050  0.07153077    -0.81420
O985        O  0.09335169  0.98654546  0.14999037    -0.81430
O986        O  0.06624854  0.89909844  0.05475163    -0.81370
O987        O  0.12554261  0.00309883  0.10833271    -0.81500
O988        O  0.04520081  0.86437920  0.09274489    -0.81410
O989        O  0.11831826  0.95175682  0.04234534    -0.81400
O990        O  0.05210850  0.94817329  0.10971909    -0.81440
C991        C  0.02739737  0.92359713  0.10627406     1.08290
C992        C  0.14523752  0.97460873  0.04423509     1.08180
C993        C  0.10746814  0.00655107  0.12808937     1.08310
C994        C  0.04643075  0.87217412  0.06260434     1.08190
O995        O  0.09439275  0.88055221  0.14125050    -0.81400
O996        O  0.14133198  0.98214777  0.16469960    -0.81480
O997        O  0.04498071  0.92738159  0.17657187    -0.81410
O998        O  0.15477659  0.92939273  0.07688455    -0.81390
O999        O  0.16424445  0.95205956  0.12698261    -0.81440
O1000       O  0.03947536  0.88002829  0.16851863    -0.81410
O1001       O  0.10174210  0.87667487  0.08800258    -0.81370
O1002       O  0.10307626  0.93893240  0.18005336    -0.81440
Co1003     Co  0.06680421  0.89775286  0.12973471     1.51530
Co1004     Co  0.14436776  0.97668612  0.11732104     1.51690
Co1005     Co  0.07705611  0.94070530  0.14266521     1.51570
Co1006     Co  0.10953780  0.91560530  0.06756256     1.51470
O1007       O  0.10278467  0.93674114  0.10749730    -1.43330
C1008       C  0.09935079  0.86662971  0.11688566     1.08220
C1009       C  0.12730263  0.96439197  0.18753717     1.08310
C1010       C  0.03378144  0.89919301  0.18567385     1.08240
C1011       C  0.17019357  0.93789504  0.10422059     1.08220
O1012       O  0.15609513  0.61042079  0.32292697    -0.81400
O1013       O  0.12484789  0.53399796  0.36402566    -0.81420
O1014       O  0.17571086  0.56153624  0.31497883    -0.81430
O1015       O  0.12001282  0.59049060  0.42458002    -0.81370
O1016       O  0.16828674  0.52025820  0.34103759    -0.81500
O1017       O  0.12032333  0.59872280  0.37164236    -0.81410
O1018       O  0.12299540  0.53772358  0.41827359    -0.81400
O1019       O  0.20344644  0.62549442  0.31188218    -0.81440
C1020       C  0.17708371  0.62014958  0.30239321     1.08290
C1021       C  0.11034462  0.52353607  0.39067181     1.08180
C1022       C  0.16832896  0.53256020  0.31422625     1.08310
C1023       C  0.10615069  0.59077167  0.39819699     1.08190
O1024       O  0.16625352  0.64788428  0.41332706    -0.81400
O1025       O  0.21890862  0.57120520  0.36983103    -0.81480
O1026       O  0.23401947  0.63578604  0.37510768    -0.81410
O1027       O  0.18941729  0.57374494  0.43833732    -0.81390
O1028       O  0.16984695  0.53296377  0.40546615    -0.81440
O1029       O  0.20964303  0.66115797  0.36304868    -0.81410
O1030       O  0.18477323  0.62571531  0.44450937    -0.81370
O1031       O  0.23748255  0.59900270  0.32571932    -0.81440
Co1032     Co  0.16383822  0.62776914  0.36807757     1.51530
Co1033     Co  0.17092725  0.55482439  0.36553657     1.51690
Co1034     Co  0.20417067  0.59886024  0.34819053     1.51570
Co1035     Co  0.15603362  0.58281323  0.42886756     1.51470
O1036       O  0.17198317  0.59387585  0.38181948    -1.43330
C1037       C  0.17676767  0.64584090  0.44130181     1.08220
C1038       C  0.24113013  0.58480184  0.34911823     1.08310
C1039       C  0.23454257  0.66117323  0.37146419     1.08240
C1040       C  0.18294864  0.54622154  0.43260610     1.08220
O1041       O  0.03751824  0.60498243  0.16921020    -0.81400
O1042       O  0.11905834  0.70136904  0.04947215    -0.81420
O1043       O  0.03948326  0.67856316  0.09856524    -0.81430
O1044       O  0.12353601  0.63919383  0.12617148    -0.81370
O1045       O  0.06582915  0.65868352  0.07775006    -0.81500
O1046       O  0.07419007  0.62117756  0.11693257    -0.81410
O1047       O  0.14522907  0.68836130  0.08414111    -0.81400
O1048       O  0.02407281  0.63915509  0.15122451    -0.81440
C1049       C  0.01723497  0.61143600  0.15924927     1.08290
C1050       C  0.13956597  0.69359994  0.05425709     1.08180
C1051       C  0.04348818  0.66346694  0.07509739     1.08310
C1052       C  0.09723917  0.61701866  0.11679746     1.08190
O1053       O  0.10074230  0.63366435  0.18296818    -0.81400
O1054       O  0.08876390  0.72771461  0.08939887    -0.81480
O1055       O  0.06247950  0.69622961  0.19377078    -0.81410
O1056       O  0.16177115  0.72939422  0.14535959    -0.81390
O1057       O  0.14012330  0.73688231  0.10308501    -0.81440
O1058       O  0.06724787  0.65661270  0.20415507    -0.81410
O1059       O  0.13979512  0.68071380  0.18384380    -0.81370
O1060       O  0.08078687  0.73100804  0.14227318    -0.81440
Co1061     Co  0.07116246  0.64231400  0.15802262     1.51530
Co1062     Co  0.10377536  0.69604499  0.09322042     1.51690
Co1063     Co  0.05551435  0.68630420  0.14611169     1.51570
Co1064     Co  0.13917231  0.68474040  0.13562491     1.51470
O1065       O  0.09643859  0.68392685  0.13998557    -1.43330
C1066       C  0.12687339  0.65402183  0.19511556     1.08220
C1067       C  0.08730700  0.74330436  0.11467213     1.08310
C1068       C  0.06188855  0.67762853  0.21407203     1.08240
C1069       C  0.16070892  0.74732672  0.12518293     1.08220
O1070       O  0.40311752  0.93647093  0.10840875    -0.81400
O1071       O  0.34949800  0.95510030  0.06493548    -0.81420
O1072       O  0.33443959  0.85943758  0.07761495    -0.81430
O1073       O  0.38370257  0.98604282  0.13231141    -0.81370
O1074       O  0.35079005  0.90387534  0.05536407    -0.81500
O1075       O  0.41646805  0.97695021  0.16082954    -0.81410
O1076       O  0.33214036  0.97469423  0.10253263    -0.81400
O1077       O  0.38386536  0.88799356  0.12183630    -0.81440
C1078       C  0.40574300  0.91245537  0.10965325     1.08290
C1079       C  0.34366221  0.97590196  0.07421210     1.08180
C1080       C  0.34614511  0.87693812  0.05335033     1.08310
C1081       C  0.41047478  0.99534916  0.14603675     1.08190
O1082       O  0.35879895  0.95151202  0.18565446    -0.81400
O1083       O  0.28691161  0.86724366  0.07892925    -0.81480
O1084       O  0.33921905  0.88098703  0.17438078    -0.81410
O1085       O  0.29236301  0.92425298  0.14397039    -0.81390
O1086       O  0.28692284  0.92069941  0.08956390    -0.81440
O1087       O  0.38714801  0.91727263  0.17545295    -0.81410
O1088       O  0.33768728  0.97986170  0.17159757    -0.81370
O1089       O  0.29466067  0.85828666  0.12993488    -0.81440
Co1090     Co  0.37958114  0.94349732  0.14383312     1.51530
Co1091     Co  0.32016301  0.91201867  0.07421306     1.51690
Co1092     Co  0.33803288  0.87411243  0.12594433     1.51570
Co1093     Co  0.33788891  0.95134847  0.13964307     1.51470
O1094       O  0.34078454  0.91583833  0.11838718    -1.43330
C1095       C  0.34943135  0.97092375  0.19369630     1.08220
C1096       C  0.27665019  0.85348974  0.10595898     1.08310
C1097       C  0.36478383  0.89516214  0.18946879     1.08240
C1098       C  0.27644692  0.92136070  0.11806696     1.08220
C1099       C  0.48600780  0.58603143  0.15338798    -0.07390
C1100       C  0.47992934  0.56935205  0.12301055    -0.18510
C1101       C  0.45382321  0.54008260  0.11870041     0.09810
C1102       C  0.43384467  0.52767607  0.14552266    -0.07310
C1103       C  0.43865875  0.54537550  0.17489040    -0.18550
C1104       C  0.46467798  0.57458866  0.17909124     0.09840
S1105       S  0.44927566  0.51875610  0.08003479    -0.33510
S1106       S  0.47082463  0.59501702  0.21847044    -0.33520
H1107       H  0.48648854  0.62445457  0.20499394     0.27850
H1108       H  0.41708220  0.99910817  0.08122705     0.27850
H1109       H  0.49665531  0.57830938  0.10337638     0.18440
H1110       H  0.42289314  0.53574829  0.19524228     0.18450
C1111       C  0.24399490  0.83007475  0.11079143    -0.07390
C1112       C  0.23571004  0.81930910  0.14324289    -0.18510
C1113       C  0.20684360  0.79449262  0.14984859     0.09810
C1114       C  0.18570636  0.77941544  0.12344613    -0.07310
C1115       C  0.19223604  0.79241322  0.09195632    -0.18550
C1116       C  0.22131227  0.81723128  0.08517528     0.09840
S1117       S  0.19875913  0.78284855  0.19219044    -0.33510
S1118       S  0.22845022  0.82920033  0.04299474    -0.33520
H1119       H  0.25243489  0.82215325  0.03946829     0.27850
H1120       H  0.16662968  0.77132969  0.18908323     0.27850
H1121       H  0.25199106  0.82992362  0.16394071     0.18440
H1122       H  0.17576559  0.78133428  0.07148141     0.18450
C1123       C  0.14268135  0.64559895  0.22061858    -0.07390
C1124       C  0.12707117  0.61501760  0.23109225    -0.18510
C1125       C  0.14004864  0.60506320  0.25483226     0.09810
C1126       C  0.16938305  0.62595962  0.26926008    -0.07310
C1127       C  0.18615983  0.65588190  0.25746494    -0.18550
C1128       C  0.17309336  0.66610377  0.23362654     0.09840
S1129       S  0.11717930  0.56567947  0.26738262    -0.33510
S1130       S  0.19598824  0.70597007  0.22268713    -0.33520
H1131       H  0.17321837  0.71334220  0.23252041     0.27850
H1132       H  0.14272548  0.56109478  0.26769625     0.27850
H1133       H  0.10418830  0.59859354  0.22119645     0.18440
H1134       H  0.20833706  0.67225122  0.26901200     0.18450
C1135       C  0.15544223  0.68759673  0.02577341    -0.07390
C1136       C  0.16766947  0.66790482  0.03063826    -0.18510
C1137       C  0.17771562  0.65635032  0.00419902     0.09810
C1138       C  0.17496344  0.66380049  0.47114522    -0.07310
C1139       C  0.16531021  0.68573093  0.46666421    -0.18550
C1140       C  0.15620889  0.69806442  0.99342840     0.09840
S1141       S  0.19198393  0.63077648  0.01488850    -0.33510
S1142       S  0.14637385  0.72737999  0.48465915    -0.33520
H1143       H  0.15939343  0.74471117  0.01436892     0.27850
H1144       H  0.21862490  0.64598326  0.49567024     0.27850
H1145       H  0.16829478  0.66022030  0.05528256     0.18440
H1146       H  0.16394342  0.69277363  0.44190820     0.18450
C1147       C  0.16061328  0.99121147  0.01466923    -0.07390
C1148       C  0.18400602  0.52240732  0.01857770    -0.18510
C1149       C  0.19612488  0.54054514  0.99111036     0.09810
C1150       C  0.18354067  0.52746393  0.45941520    -0.07310
C1151       C  0.16394971  0.99529980  0.45536554    -0.18550
C1152       C  0.15244855  0.97702378  0.48261717     0.09840
S1153       S  0.22662128  0.58013705  0.99814948    -0.33510
S1154       S  0.12691711  0.93615728  0.47444633    -0.33520
H1155       H  0.13906978  0.92716464  0.00061776     0.27850
H1156       H  0.23980006  0.58241777  0.96680324     0.27850
H1157       H  0.19202044  0.53310459  0.04311803     0.18440
H1158       H  0.15538080  0.98450409  0.43096405     0.18450
C1159       C  0.13902131  0.97786482  0.22192670    -0.07390
C1160       C  0.16458150  0.50850634  0.22378775    -0.18510
C1161       C  0.17425716  0.52649463  0.25320214     0.09810
C1162       C  0.15905095  0.51368114  0.28268297    -0.07310
C1163       C  0.13526677  0.48231106  0.28194441    -0.18550
C1164       C  0.12503044  0.96432884  0.25195532     0.09840
S1165       S  0.20685359  0.56561396  0.25253794    -0.33510
S1166       S  0.09457245  0.92464548  0.25386163    -0.33520
H1167       H  0.10798405  0.91331645  0.23069716     0.27850
H1168       H  0.20857014  0.56814899  0.21791069     0.27850
H1169       H  0.17696972  0.51924802  0.20168653     0.18440
H1170       H  0.12421987  0.97186802  0.30479357     0.18450
C1171       C  0.10231239  0.53367108  0.12471442    -0.07390
C1172       C  0.10908902  0.54891557  0.09437728    -0.18510
C1173       C  0.10454826  0.57429809  0.08953144     0.09810
C1174       C  0.09312494  0.58524676  0.11542897    -0.07310
C1175       C  0.08448580  0.56891505  0.14484607    -0.18550
C1176       C  0.08945340  0.54397167  0.15006650     0.09840
S1177       S  0.11313267  0.59139166  0.04956996    -0.33510
S1178       S  0.08057420  0.52782914  0.19050434    -0.33520
H1179       H  0.10921432  0.52894321  0.19474203     0.27850
H1180       H  0.09518655  0.60593510  0.05272633     0.27850
H1181       H  0.11792507  0.54097784  0.07408565     0.18440
H1182       H  0.07559337  0.57689937  0.16499409     0.18450
C1183       C  0.09249657  0.77559155  0.11376918    -0.07390
C1184       C  0.10487968  0.79533836  0.14255786    -0.18510
C1185       C  0.10749212  0.82491617  0.14530939     0.09810
C1186       C  0.09766928  0.83563766  0.11841906    -0.07310
C1187       C  0.08524206  0.81559490  0.08982835    -0.18550
C1188       C  0.08238469  0.78614376  0.08728009     0.09840
S1189       S  0.12300002  0.84680218  0.18395277    -0.33510
S1190       S  0.06351191  0.76242777  0.05050228    -0.33520
H1191       H  0.04424714  0.73557742  0.06774952     0.27850
H1192       H  0.13396105  0.87648587  0.17206845     0.27850
H1193       H  0.11243173  0.78749140  0.16348401     0.18440
H1194       H  0.07621285  0.82228463  0.06932713     0.18450
C1195       C  0.19734358  0.93382987  0.10870744    -0.07390
C1196       C  0.19427833  0.90830422  0.12557544    -0.18510
C1197       C  0.21985586  0.90421920  0.13139550     0.09810
C1198       C  0.24912564  0.92576420  0.11913321    -0.07310
C1199       C  0.25197871  0.95141666  0.10253111    -0.18550
C1200       C  0.22668303  0.95578728  0.09746078     0.09840
S1201       S  0.21286625  0.87056278  0.15328450    -0.33510
S1202       S  0.23306215  0.98935899  0.07558065    -0.33520
H1203       H  0.21498760  0.99662340  0.09672752     0.27850
H1204       H  0.24323210  0.88220927  0.16541628     0.27850
H1205       H  0.17171172  0.89126316  0.13401421     0.18440
H1206       H  0.27427395  0.96830154  0.09318246     0.18450
C1207       C  0.43596598  0.91430655  0.10081488    -0.07390
C1208       C  0.46259258  0.94372525  0.09865257    -0.18510
C1209       C  0.49254825  0.94754227  0.09775006     0.09810
C1210       C  0.49670976  0.92139734  0.09888749    -0.07310
C1211       C  0.46989803  0.89187452  0.09806837    -0.18550
C1212       C  0.43994179  0.88802745  0.09839953     0.09840
S1213       S  0.02437770  0.98663905  0.09776531    -0.33510
S1214       S  0.40794858  0.84883544  0.09604406    -0.33520
H1215       H  0.39018465  0.85565120  0.07436845     0.27850
H1216       H  0.03274586  0.98551300  0.13079866     0.27850
H1217       H  0.46035974  0.96428705  0.09975874     0.18440
H1218       H  0.47216207  0.87137925  0.09850194     0.18450
C1219       C  0.49304323  0.64978876  0.48263409    -0.07390
C1220       C  0.01934136  0.64642282  0.48337583    -0.18510
C1221       C  0.03512677  0.64872842  0.01305576     0.09810
C1222       C  0.02534762  0.65637539  0.04322209    -0.07310
C1223       C  0.99948933  0.66092866  0.04209692    -0.18550
C1224       C  0.48334913  0.65777102  0.01223634     0.09840
S1225       S  0.06726417  0.64136893  0.51097542    -0.33510
S1226       S  0.45171232  0.66569803  0.01324755    -0.33520
H1227       H  0.45306282  0.67335488  0.47984112     0.27850
H1228       H  0.06843200  0.63867808  0.97632989     0.27850
H1229       H  0.02674580  0.64043910  0.46045840     0.18440
H1230       H  0.49197609  0.66746788  0.06458273     0.18450
C1231       C  0.50645374  0.65480087  0.30085878    -0.07390
C1232       C  0.03604183  0.65764904  0.30331395    -0.18510
C1233       C  0.05642653  0.66737713  0.27636028     0.09810
C1234       C  0.04785283  0.67613378  0.24697034    -0.07310
C1235       C  0.51973954  0.67625029  0.24609476    -0.18550
C1236       C  0.49825768  0.66393055  0.27131185     0.09840
S1237       S  0.09253819  0.66748183  0.28054624    -0.33510
S1238       S  0.46008468  0.65775647  0.26105719    -0.33520
H1239       H  0.44345566  0.64069213  0.28778592     0.27850
H1240       H  0.10806733  0.68881283  0.25581851     0.27850
H1241       H  0.04251534  0.65037397  0.32549498     0.18440
H1242       H  0.51251338  0.68227271  0.22347581     0.18450
C1243       C  0.35025448  0.00045034  0.05095339    -0.07390
C1244       C  0.37770103  0.52885271  0.05581908    -0.18510
C1245       C  0.39158476  0.54828004  0.02929458     0.09810
C1246       C  0.37751216  0.53938969  0.49726015    -0.07310
C1247       C  0.34848478  0.01250914  0.49333126    -0.18550
C1248       C  0.33500904  0.99279374  0.51956886     0.09840
S1249       S  0.42804970  0.58310982  0.03751233    -0.33510
S1250       S  0.30022850  0.95636003  0.51039854    -0.33520
H1251       H  0.28811435  0.95431540  0.04209447     0.27850
H1252       H  0.42438853  0.59905327  0.01147035     0.27850
H1253       H  0.38979337  0.53467175  0.07963755     0.18440
H1254       H  0.33755789  0.00525369  0.46890248     0.18450
C1255       C  0.36479297  0.51616990  0.29013058    -0.07390
C1256       C  0.38381265  0.50452530  0.27920663    -0.18510
C1257       C  0.37847302  0.48838917  0.24890880     0.09810
C1258       C  0.35291676  0.98300553  0.22850715    -0.07310
C1259       C  0.33250783  0.49284010  0.24047949    -0.18550
C1260       C  0.33834519  0.50963783  0.27088727     0.09840
S1261       S  0.40798172  0.97958469  0.23635970    -0.33510
S1262       S  0.31288129  0.52426342  0.28221993    -0.33520
H1263       H  0.33675328  0.55408919  0.29196408     0.27850
H1264       H  0.38788334  0.94760015  0.23706919     0.27850
H1265       H  0.40435418  0.50974188  0.29370811     0.18440
H1266       H  0.31281638  0.98891340  0.22524582     0.18450
C1267       C  0.01858064  0.58637313  0.40453021    -0.07390
C1268       C  0.03370020  0.59222913  0.37426799    -0.18510
C1269       C  0.06031534  0.59030953  0.37035737     0.09810
C1270       C  0.07393018  0.58461701  0.39831443    -0.07310
C1271       C  0.05730171  0.57583684  0.42774253    -0.18550
C1272       C  0.02932323  0.57576806  0.43090628     0.09840
S1273       S  0.07502772  0.59561622  0.32877612    -0.33510
S1274       S  0.00848154  0.56071583  0.46852349    -0.33520
H1275       H  0.00749078  0.58752311  0.47772009     0.27850
H1276       H  0.07859782  0.56930968  0.32882658     0.27850
H1277       H  0.02458358  0.59818487  0.35306582     0.18440
H1278       H  0.06643503  0.56963686  0.44871969     0.18450
C1279       C  0.33192768  0.59511988  0.36211104    -0.07390
C1280       C  0.30747301  0.57472936  0.38185195    -0.18510
C1281       C  0.27747619  0.56988568  0.37761568     0.09810
C1282       C  0.27168853  0.58680255  0.35388522    -0.07310
C1283       C  0.29649186  0.60776318  0.33471695    -0.18550
C1284       C  0.32629065  0.61208228  0.33854185     0.09840
S1285       S  0.24775956  0.54050520  0.40202542    -0.33510
S1286       S  0.35613236  0.64013921  0.31312824    -0.33520
H1287       H  0.37922490  0.65067797  0.33799948     0.27850
H1288       H  0.22737911  0.52570205  0.37472690     0.27850
H1289       H  0.31131230  0.56100184  0.39953052     0.18440
H1290       H  0.29288976  0.62135639  0.31668321     0.18450
C1291       C  0.48870365  0.83746985  0.47714792    -0.07390
C1292       C  0.01935653  0.84392242  0.47539607    -0.18510
C1293       C  0.03772227  0.85081334  0.50405916     0.09810
C1294       C  0.02547165  0.85171920  0.03554745    -0.07310
C1295       C  0.99381788  0.84144995  0.03769323    -0.18550
C1296       C  0.47515435  0.83413903  0.00886624     0.09840
S1297       S  0.07734438  0.86036316  0.49816540    -0.33510
S1298       S  0.43438105  0.82125924  0.01329781    -0.33520
H1299       H  0.43335682  0.81737932  0.54771246     0.27850
H1300       H  0.08324131  0.85623668  0.03077857     0.27850
H1301       H  0.02967671  0.84532449  0.45144126     0.18440
H1302       H  0.48432375  0.84163262  0.06170800     0.18450
C1303       C  0.01577649  0.88936823  0.21677164    -0.07390
C1304       C  0.50331972  0.85848348  0.22613633    -0.18510
C1305       C  0.48813243  0.84836066  0.25628157     0.09810
C1306       C  0.48516594  0.86958168  0.27817200    -0.07310
C1307       C  0.99686637  0.90015230  0.26828677    -0.18550
C1308       C  0.01235123  0.91038649  0.23862106     0.09840
S1309       S  0.47378173  0.80830758  0.26513978    -0.33510
S1310       S  0.02813112  0.95108799  0.23174396    -0.33520
H1311       H  0.05897813  0.95724859  0.23171429     0.27850
H1312       H  0.44349701  0.80222975  0.27133037     0.27850
H1313       H  0.50568112  0.84197082  0.21002333     0.18440
H1314       H  0.99485905  0.91691853  0.28434981     0.18450
C1315       C  0.40660302  0.98617114  0.38797351    -0.07390
C1316       C  0.43448472  0.98784305  0.39846931    -0.18510
C1317       C  0.43929973  0.96279185  0.39439677     0.09810
C1318       C  0.41616911  0.93520826  0.37887457    -0.07310
C1319       C  0.38783171  0.93260781  0.36943131    -0.18550
C1320       C  0.38279608  0.95779246  0.37356546     0.09840
S1321       S  0.47497609  0.96697737  0.41070243    -0.33510
S1322       S  0.34600136  0.95203387  0.35916445    -0.33520
H1323       H  0.35944750  0.47872842  0.34066156     0.27850
H1324       H  0.46022307  0.93774544  0.42485497     0.27850
H1325       H  0.45289752  0.00880780  0.41045743     0.18440
H1326       H  0.36999609  0.91121899  0.35749948     0.18450
C1327       C  0.42600865  0.74014786  0.38696887    -0.07390
C1328       C  0.43881240  0.73451202  0.35845411    -0.18510
C1329       C  0.44233294  0.70872652  0.35491912     0.09810
C1330       C  0.43066052  0.68609514  0.37914261    -0.07310
C1331       C  0.41699592  0.69095207  0.40741416    -0.18550
C1332       C  0.41506231  0.71795499  0.41193005     0.09840
S1333       S  0.46500695  0.70835675  0.32052034    -0.33510
S1334       S  0.39851755  0.72244215  0.44987309    -0.33520
H1335       H  0.42675905  0.74785947  0.46153083     0.27850
H1336       H  0.48340909  0.70046098  0.33976684     0.27850
H1337       H  0.44809314  0.75130831  0.33924693     0.18440
H1338       H  0.40807552  0.67378285  0.42627370     0.18450
C1339       C  0.08013951  0.99291546  0.39055375    -0.07390
C1340       C  0.06708852  0.97973795  0.42111472    -0.18510
C1341       C  0.04100410  0.94969040  0.42281502     0.09810
C1342       C  0.02753089  0.93149523  0.39341133    -0.07310
C1343       C  0.04010737  0.94466098  0.36300784    -0.18550
C1344       C  0.06516952  0.97504635  0.36113099     0.09840
S1345       S  0.02656475  0.93570501  0.46327146    -0.33510
S1346       S  0.07548760  0.98969667  0.32014581    -0.33520
H1347       H  0.07711397  0.51808074  0.32881182     0.27850
H1348       H  0.51405999  0.90409092  0.45468933     0.27850
H1349       H  0.07758025  0.99268547  0.44412963     0.18440
H1350       H  0.02945134  0.93150062  0.34014131     0.18450
C1351       C  0.32675277  0.74338407  0.37319598    -0.07390
C1352       C  0.31695603  0.72256445  0.39928607    -0.18510
C1353       C  0.28693183  0.69667242  0.40000405     0.09810
C1354       C  0.26525905  0.69059365  0.37403607    -0.07310
C1355       C  0.27481547  0.71108108  0.34779556    -0.18550
C1356       C  0.30512976  0.73682863  0.34676579     0.09840
S1357       S  0.27735091  0.67285749  0.43559512    -0.33510
S1358       S  0.31435291  0.76035789  0.31108950    -0.33520
H1359       H  0.34071944  0.75793382  0.30373147     0.27850
H1360       H  0.24624408  0.66566068  0.43636993     0.27850
H1361       H  0.33267091  0.72679965  0.41997793     0.18440
H1362       H  0.25884455  0.70636019  0.32721384     0.18450
C1363       C  0.35781051  0.84742346  0.45649863    -0.07390
C1364       C  0.37382830  0.87874592  0.46630234    -0.18510
C1365       C  0.37249544  0.88829293  0.99857342     0.09810
C1366       C  0.35199300  0.86640525  0.02110020    -0.07310
C1367       C  0.33402907  0.83516578  0.01045577    -0.18550
C1368       C  0.33743052  0.82538509  0.47857826     0.09840
S1369       S  0.40003643  0.92828797  0.00977036    -0.33510
S1370       S  0.31686694  0.78455713  0.46781977    -0.33520
H1371       H  0.34410978  0.78343720  0.46190985     0.27850
H1372       H  0.40786666  0.92144721  0.04055618     0.27850
H1373       H  0.39060029  0.89548209  0.44984638     0.18440
H1374       H  0.31782227  0.81830548  0.02712409     0.18450
C1375       C  0.36854474  0.88398763  0.22160909    -0.07390
C1376       C  0.38786811  0.87108067  0.22317605    -0.18510
C1377       C  0.39056236  0.85780493  0.25212416     0.09810
C1378       C  0.37525075  0.85914870  0.28109246    -0.07310
C1379       C  0.35547790  0.87163299  0.27933913    -0.18550
C1380       C  0.35136262  0.88330717  0.24979391     0.09840
S1381       S  0.41209418  0.83762356  0.24967109    -0.33510
S1382       S  0.32573990  0.89915777  0.25047071    -0.33520
H1383       H  0.30922531  0.88328273  0.22133386     0.27850
H1384       H  0.39514838  0.81610055  0.27377379     0.27850
H1385       H  0.39996359  0.87018146  0.20122679     0.18560
H1386       H  0.34373999  0.87304553  0.30135105     0.18450
O1387       O  0.44576084  0.91557420  0.85350061    -0.81400
O1388       O  0.45092250  0.84257722  0.94719357    -0.81420
O1389       O  0.36130877  0.82793352  0.90246694    -0.81430
O1390       O  0.49980371  0.87725355  0.87773974    -0.81370
O1391       O  0.39975093  0.84442885  0.93780224    -0.81500
O1392       O  0.47298743  0.89744235  0.89932088    -0.81410
O1393       O  0.47784087  0.82685138  0.91834689    -0.81400
O1394       O  0.40318385  0.88221626  0.87917689    -0.81440
C1395       C  0.42201347  0.90994274  0.86987378     1.08290
C1396       C  0.47195265  0.83579440  0.94595611     1.08180
C1397       C  0.37296927  0.83897841  0.93091375     1.08310
C1398       C  0.49898828  0.90008724  0.89219015     1.08190
O1399       O  0.47183838  0.88343555  0.82994056    -0.81400
O1400       O  0.36922107  0.78178044  0.90667082    -0.81480
O1401       O  0.36199159  0.83950436  0.83568650    -0.81410
O1402       O  0.43662408  0.78756610  0.86520170    -0.81390
O1403       O  0.42237928  0.78055459  0.91709269    -0.81440
O1404       O  0.41126999  0.86008227  0.82126332    -0.81410
O1405       O  0.46052289  0.83554063  0.82328809    -0.81370
O1406       O  0.37049627  0.79097170  0.85354337    -0.81440
Co1407     Co  0.44044681  0.87679065  0.86393296     1.51530
Co1408     Co  0.41160699  0.81408944  0.92514919     1.51690
Co1409     Co  0.39036334  0.83621710  0.86443709     1.51570
Co1410     Co  0.46611440  0.83174352  0.87132288     1.51470
O1411       O  0.42829661  0.83606707  0.88265715    -1.43330
C1412       C  0.47153494  0.86212404  0.81179534     1.08220
C1413       C  0.35753395  0.77311759  0.87737894     1.08310
C1414       C  0.38277281  0.85211369  0.81410092     1.08240
C1415       C  0.42738115  0.77050089  0.88985263     1.08220
O1416       O  0.46088883  0.61173868  0.81945688    -0.81400
O1417       O  0.42823272  0.53871760  0.90341878    -0.81420
O1418       O  0.98662392  0.60538668  0.88436644    -0.81430
O1419       O  0.36202861  0.53996130  0.84237202    -0.81370
O1420       O  0.47429661  0.58303772  0.93043955    -0.81500
O1421       O  0.40523448  0.56095694  0.81450279    -0.81410
O1422       O  0.37987410  0.51551474  0.88959694    -0.81400
O1423       O  0.48420154  0.65043145  0.85513614    -0.81440
C1424       C  0.48326836  0.63829049  0.82664441     1.08290
C1425       C  0.40437390  0.51461691  0.89360584     1.08180
C1426       C  0.99213445  0.59172871  0.90667709     1.08310
C1427       C  0.37768802  0.53983336  0.81745064     1.08190
O1428       O  0.37551459  0.59505922  0.83784579    -0.81400
O1429       O  0.44702689  0.61901008  0.94832135    -0.81480
O1430       O  0.43583796  0.64509739  0.90023454    -0.81410
O1431       O  0.38071047  0.55797757  0.94223763    -0.81390
O1432       O  0.42213831  0.55856616  0.96433885    -0.81440
O1433       O  0.43176204  0.64616850  0.84650259    -0.81410
O1434       O  0.36956118  0.58906270  0.89123475    -0.81370
O1435       O  0.49039539  0.65286608  0.92444911    -0.81440
Co1436     Co  0.41889002  0.60232613  0.83235615     1.51530
Co1437     Co  0.43271841  0.57699034  0.92303084     1.51690
Co1438     Co  0.46019247  0.62405132  0.89361185     1.51570
Co1439     Co  0.37748442  0.55430869  0.89036056     1.51470
O1440       O  0.42405764  0.58642172  0.87685980    -1.43330
C1441       C  0.36131587  0.59465487  0.86407966     1.08220
C1442       C  0.47562746  0.64143826  0.95073744     1.08310
C1443       C  0.43230509  0.65747799  0.87523849     1.08240
C1444       C  0.39454225  0.55306910  0.96669762     1.08220
O1445       O  0.02908764  0.90046517  0.61430898    -0.81400
O1446       O  0.15981857  0.98304566  0.57153148    -0.81420
O1447       O  0.09335418  0.98654939  0.64999111    -0.81430
O1448       O  0.06625199  0.89910336  0.55475141    -0.81370
O1449       O  0.12554548  0.00310343  0.60833366    -0.81500
O1450       O  0.04520453  0.86438483  0.59274544    -0.81410
O1451       O  0.11832201  0.95176176  0.54234534    -0.81400
O1452       O  0.05211051  0.94817833  0.60971990    -0.81440
C1453       C  0.02739964  0.92360202  0.60627411     1.08290
C1454       C  0.14524135  0.97461352  0.54423544     1.08180
C1455       C  0.10747046  0.00655504  0.62809009     1.08310
C1456       C  0.04643402  0.87217929  0.56260473     1.08190
O1457       O  0.09439674  0.88055983  0.64125229    -0.81400
O1458       O  0.14133378  0.98215137  0.66470014    -0.81480
O1459       O  0.04498265  0.92738511  0.67657221    -0.81410
O1460       O  0.15478013  0.92939785  0.57688538    -0.81390
O1461       O  0.16424740  0.95206407  0.62698352    -0.81440
O1462       O  0.03947716  0.88003195  0.66851757    -0.81410
O1463       O  0.10174571  0.87668134  0.58800442    -0.81370
O1464       O  0.10307818  0.93893531  0.68005266    -0.81440
Co1465     Co  0.06680720  0.89775888  0.62973524     1.51530
Co1466     Co  0.14437065  0.97669081  0.61732173     1.51690
Co1467     Co  0.07705813  0.94070931  0.64266523     1.51570
Co1468     Co  0.10954126  0.91561060  0.56756304     1.51470
O1469       O  0.10278737  0.93674657  0.60749694    -1.43330
C1470       C  0.09935542  0.86663742  0.61688794     1.08220
C1471       C  0.12730446  0.96439470  0.68753708     1.08310
C1472       C  0.03378296  0.89919617  0.68567331     1.08240
C1473       C  0.17019669  0.93789946  0.60422171     1.08220
O1474       O  0.15609184  0.61039600  0.82291713    -0.81400
O1475       O  0.12484976  0.53398948  0.86402372    -0.81420
O1476       O  0.17571400  0.56152966  0.81497650    -0.81430
O1477       O  0.12000307  0.59047652  0.92456837    -0.81370
O1478       O  0.16828991  0.52025162  0.84103593    -0.81500
O1479       O  0.12031738  0.59868932  0.87162634    -0.81410
O1480       O  0.12299636  0.53771479  0.91827137    -0.81400
O1481       O  0.20344585  0.62548770  0.81187479    -0.81440
C1482       C  0.17708089  0.62013515  0.80238446     1.08290
C1483       C  0.11034588  0.52352812  0.89066963     1.08180
C1484       C  0.16833217  0.53255377  0.81422448     1.08310
C1485       C  0.10614325  0.59075127  0.89818065     1.08190
O1486       O  0.16623547  0.64786635  0.91331094    -0.81400
O1487       O  0.21891104  0.57120125  0.86982742    -0.81480
O1488       O  0.23401804  0.63578416  0.87510079    -0.81410
O1489       O  0.18941467  0.57374248  0.93833909    -0.81390
O1490       O  0.16985234  0.53296135  0.90546664    -0.81440
O1491       O  0.20963303  0.66114778  0.86304032    -0.81410
O1492       O  0.18476128  0.62570937  0.94450321    -0.81370
O1493       O  0.23748518  0.59900006  0.82571610    -0.81440
Co1494     Co  0.16382912  0.62774944  0.86806511     1.51530
Co1495     Co  0.17092935  0.55481765  0.86553431     1.51690
Co1496     Co  0.20417222  0.59885576  0.84818597     1.51570
Co1497     Co  0.15602846  0.58280550  0.92886324     1.51470
O1498       O  0.17198441  0.59386790  0.88181618    -1.43330
C1499       C  0.17674949  0.64582959  0.94128875     1.08220
C1500       C  0.24113276  0.58479917  0.84911507     1.08310
C1501       C  0.23453563  0.66116876  0.87145721     1.08240
C1502       C  0.18295047  0.54622023  0.93260789     1.08220
O1503       O  0.03751564  0.60498408  0.66918426    -0.81400
O1504       O  0.11910404  0.70140325  0.54947931    -0.81420
O1505       O  0.03950186  0.67858091  0.59854915    -0.81430
O1506       O  0.12354391  0.63920110  0.62617453    -0.81370
O1507       O  0.06585257  0.65870887  0.57772332    -0.81500
O1508       O  0.07420109  0.62118867  0.61691723    -0.81410
O1509       O  0.14525516  0.68837849  0.58415619    -0.81400
O1510       O  0.02407447  0.63916094  0.65120163    -0.81440
C1511       C  0.01723427  0.61143990  0.65922235     1.08290
C1512       C  0.13960547  0.69362682  0.55427126     1.08180
C1513       C  0.04351238  0.66349511  0.57507412     1.08310
C1514       C  0.09724903  0.61702790  0.61679051     1.08190
O1515       O  0.10073712  0.63366188  0.68296277    -0.81400
O1516       O  0.08878803  0.72773414  0.58939608    -0.81480
O1517       O  0.06247525  0.69622890  0.69376004    -0.81410
O1518       O  0.16177863  0.72940074  0.64538106    -0.81390
O1519       O  0.14013925  0.73689584  0.60310440    -0.81440
O1520       O  0.06724013  0.65660929  0.70414119    -0.81410
O1521       O  0.13978580  0.68071303  0.68385453    -0.81370
O1522       O  0.08079712  0.73101686  0.64226888    -0.81440
Co1523     Co  0.07116394  0.64231706  0.65800860     1.51530
Co1524     Co  0.10379669  0.69606303  0.59321836     1.51690
Co1525     Co  0.05552092  0.68631160  0.64609878     1.51570
Co1526     Co  0.13918025  0.68474775  0.63563625     1.51470
O1527       O  0.09644434  0.68393236  0.63997985    -1.43330
C1528       C  0.12686517  0.65401820  0.69511820     1.08220
C1529       C  0.08732329  0.74331812  0.61467033     1.08310
C1530       C  0.06188205  0.67762564  0.71405969     1.08240
C1531       C  0.16071941  0.74733704  0.62520750     1.08220
O1532       O  0.40312331  0.93647733  0.60840737    -0.81400
O1533       O  0.34949670  0.95509999  0.56493336    -0.81420
O1534       O  0.33444403  0.85943998  0.57761846    -0.81430
O1535       O  0.38370426  0.98604655  0.63231042    -0.81370
O1536       O  0.35079077  0.90387598  0.55536516    -0.81500
O1537       O  0.41647272  0.97695708  0.66082739    -0.81410
O1538       O  0.33214185  0.97469540  0.60253247    -0.81400
O1539       O  0.38387282  0.88800033  0.62183566    -0.81440
C1540       C  0.40574932  0.91246201  0.60965141     1.08290
C1541       C  0.34366212  0.97590228  0.57421112     1.08180
C1542       C  0.34614743  0.87693937  0.55335259     1.08310
C1543       C  0.41047707  0.99535450  0.64603489     1.08190
O1544       O  0.35880422  0.95151681  0.68565394    -0.81400
O1545       O  0.28691433  0.86724416  0.57893806    -0.81480
O1546       O  0.33922913  0.88099560  0.67438277    -0.81410
O1547       O  0.29236572  0.92425460  0.64397214    -0.81390
O1548       O  0.28692394  0.92069979  0.58956606    -0.81440
O1549       O  0.38715758  0.91728093  0.67545238    -0.81410
O1550       O  0.33768941  0.97986404  0.67159766    -0.81370
O1551       O  0.29467058  0.85829296  0.62994310    -0.81440
Co1552     Co  0.37958667  0.94350292  0.64383230     1.51530
Co1553     Co  0.32016396  0.91201892  0.57421531     1.51690
Co1554     Co  0.33804084  0.87411823  0.62594717     1.51570
Co1555     Co  0.33789170  0.95135110  0.63964350     1.51470
O1556       O  0.34078960  0.91584235  0.61838789    -1.43330
C1557       C  0.34943478  0.97092705  0.69369602     1.08220
C1558       C  0.27665660  0.85349490  0.60597096     1.08310
C1559       C  0.36479424  0.89517084  0.68946944     1.08240
C1560       C  0.27644886  0.92136203  0.61806923     1.08220
C1561       C  0.48600727  0.58603186  0.65338876    -0.07390
C1562       C  0.47992938  0.56935279  0.62301119    -0.18510
C1563       C  0.45382353  0.54008321  0.61870063     0.09810
C1564       C  0.43384471  0.52767629  0.64552257    -0.07310
C1565       C  0.43865815  0.54537542  0.67489038    -0.18550
C1566       C  0.46467713  0.57458867  0.67909169     0.09840
S1567       S  0.44927654  0.51875710  0.58003487    -0.33510
S1568       S  0.47082300  0.59501664  0.71847102    -0.33520
H1569       H  0.48648740  0.62445439  0.70499502     0.27850
H1570       H  0.41708346  0.99911317  0.58122509     0.27850
H1571       H  0.49665560  0.57831048  0.60337727     0.18440
H1572       H  0.42289226  0.53574792  0.69524198     0.18450
C1573       C  0.24400206  0.83008342  0.61081229    -0.07390
C1574       C  0.23572621  0.81931255  0.64326356    -0.18510
C1575       C  0.20686074  0.79449703  0.64987419     0.09810
C1576       C  0.18571501  0.77942747  0.62347697    -0.07310
C1577       C  0.19223502  0.79243458  0.59199146    -0.18550
C1578       C  0.22131057  0.81725015  0.58520493     0.09840
S1579       S  0.19878922  0.78284398  0.69221425    -0.33510
S1580       S  0.22843488  0.82923013  0.54302762    -0.33520
H1581       H  0.25240677  0.82216746  0.53947522     0.27850
H1582       H  0.16665959  0.77132927  0.68912136     0.27850
H1583       H  0.25201389  0.82992075  0.66395681     0.18440
H1584       H  0.17575720  0.78136414  0.57152128     0.18450
C1585       C  0.14267276  0.64559229  0.72061919    -0.07390
C1586       C  0.12706251  0.61501036  0.73109078    -0.18510
C1587       C  0.14004159  0.60505344  0.75482679     0.09810
C1588       C  0.16937737  0.62594835  0.76925362    -0.07310
C1589       C  0.18615367  0.65587134  0.75746049    -0.18550
C1590       C  0.17308608  0.66609530  0.73362558     0.09840
S1591       S  0.11717286  0.56566800  0.76737275    -0.33510
S1592       S  0.19598266  0.70596167  0.72268714    -0.33520
H1593       H  0.17321700  0.71333683  0.73252919     0.27850
H1594       H  0.14272094  0.56108638  0.76769810     0.27850
H1595       H  0.10417870  0.59858788  0.72119605     0.18440
H1596       H  0.20833203  0.67223942  0.76900617     0.18450
C1597       C  0.15548532  0.68762130  0.52579297    -0.07390
C1598       C  0.16768157  0.66790268  0.53065429    -0.18510
C1599       C  0.17772113  0.65634247  0.50421419     0.09810
C1600       C  0.17493472  0.66378743  0.97112766    -0.07310
C1601       C  0.16524737  0.68569095  0.96664117    -0.18550
C1602       C  0.15628068  0.69811098  0.49345359     0.09840
S1603       S  0.19194765  0.63073309  0.51489787    -0.33510
S1604       S  0.14625144  0.72729516  0.98462180    -0.33520
H1605       H  0.15949834  0.74476453  0.51442687     0.27850
H1606       H  0.21864543  0.64603260  0.99563926     0.27850
H1607       H  0.16828556  0.66020125  0.55529539     0.18440
H1608       H  0.16385975  0.69271647  0.94188249     0.18450
C1609       C  0.16061770  0.99121545  0.51466943    -0.07390
C1610       C  0.18400766  0.52240651  0.51857394    -0.18510
C1611       C  0.19612581  0.54054447  0.49110663     0.09810
C1612       C  0.18354222  0.52746370  0.95941842    -0.07310
C1613       C  0.16394523  0.99529738  0.95536548    -0.18550
C1614       C  0.15244366  0.97702071  0.98261660     0.09840
S1615       S  0.22662473  0.58013533  0.49814526    -0.33510
S1616       S  0.12691135  0.93615454  0.97444468    -0.33520
H1617       H  0.13907500  0.92716846  0.50062090     0.27850
H1618       H  0.23980156  0.58241525  0.46679803     0.27850
H1619       H  0.19202387  0.53310334  0.54311414     0.18440
H1620       H  0.15537619  0.98450230  0.93096379     0.18450
C1621       C  0.13902296  0.97786644  0.72192681    -0.07390
C1622       C  0.16458475  0.50850325  0.72378537    -0.18510
C1623       C  0.17426120  0.52648990  0.75320067     0.09810
C1624       C  0.15905414  0.51367557  0.78268095    -0.07310
C1625       C  0.13526768  0.48230656  0.78194087    -0.18550
C1626       C  0.12503129  0.96433003  0.75195496     0.09840
S1627       S  0.20685906  0.56560850  0.75253796    -0.33510
S1628       S  0.09457270  0.92464683  0.75386028    -0.33520
H1629       H  0.10798436  0.91331782  0.73069586     0.27850
H1630       H  0.20857333  0.56814612  0.71791094     0.27850
H1631       H  0.17697371  0.51924521  0.70168457     0.18440
H1632       H  0.12421981  0.97186845  0.80479322     0.18450
C1633       C  0.10231195  0.53367363  0.62470628    -0.07390
C1634       C  0.10908558  0.54891604  0.59436763    -0.18510
C1635       C  0.10454661  0.57430005  0.58952214     0.09810
C1636       C  0.09313179  0.58525440  0.61542266    -0.07310
C1637       C  0.08449361  0.56892357  0.64484038    -0.18550
C1638       C  0.08945669  0.54397717  0.65005942     0.09840
S1639       S  0.11311812  0.59138582  0.54955654    -0.33510
S1640       S  0.08057488  0.52783313  0.69049633    -0.33520
H1641       H  0.10921436  0.52894609  0.69473514     0.27850
H1642       H  0.09517361  0.60593096  0.55271763     0.27850
H1643       H  0.11791663  0.54097475  0.57407433     0.18440
H1644       H  0.07560324  0.57690910  0.66498909     0.18450
C1645       C  0.09251000  0.77560399  0.61377004    -0.07390
C1646       C  0.10489086  0.79534970  0.64255968    -0.18510
C1647       C  0.10750024  0.82492621  0.64531211     0.09810
C1648       C  0.09767589  0.83564657  0.61842198    -0.07310
C1649       C  0.08524984  0.81560416  0.58983103    -0.18550
C1650       C  0.08239603  0.78615486  0.58728166     0.09840
S1651       S  0.12300613  0.84681196  0.68395602    -0.33510
S1652       S  0.06352463  0.76243901  0.55050328    -0.33520
H1653       H  0.04426264  0.73558703  0.56774948     0.27850
H1654       H  0.13396536  0.87649557  0.67207215     0.27850
H1655       H  0.11244360  0.78750293  0.66348543     0.18440
H1656       H  0.07621911  0.82229279  0.56933016     0.18450
C1657       C  0.19734642  0.93383347  0.60870917    -0.07390
C1658       C  0.19428039  0.90830712  0.62557664    -0.18510
C1659       C  0.21985754  0.90422128  0.63139689     0.09810
C1660       C  0.24912790  0.92576636  0.61913578    -0.07310
C1661       C  0.25198165  0.95141929  0.60253400    -0.18550
C1662       C  0.22668635  0.95579056  0.59746322     0.09840
S1663       S  0.21286684  0.87056361  0.65328432    -0.33510
S1664       S  0.23306658  0.98936257  0.57558293    -0.33520
H1665       H  0.21499103  0.99662686  0.59672834     0.27850
H1666       H  0.24323270  0.88220882  0.66541552     0.27850
H1667       H  0.17171355  0.89126609  0.63401455     0.18440
H1668       H  0.27427709  0.96830387  0.59318559     0.18450
C1669       C  0.43597164  0.91431285  0.60081123    -0.07390
C1670       C  0.46259853  0.94373125  0.59864905    -0.18510
C1671       C  0.49255384  0.94754738  0.59774660     0.09810
C1672       C  0.49671441  0.92140189  0.59888444    -0.07310
C1673       C  0.46990236  0.89187944  0.59806418    -0.18550
C1674       C  0.43994656  0.88803324  0.59839494     0.09840
S1675       S  0.02437860  0.98664322  0.59776500    -0.33510
S1676       S  0.40795276  0.84884157  0.59603807    -0.33520
H1677       H  0.39018935  0.85565884  0.57436351     0.27850
H1678       H  0.03274667  0.98551744  0.63079845     0.27850
H1679       H  0.46036622  0.96429335  0.59975553     0.18440
H1680       H  0.47216575  0.87138380  0.59849743     0.18450
C1681       C  0.49304316  0.64978763  0.98263547    -0.07390
C1682       C  0.01930079  0.64632680  0.98340683    -0.18510
C1683       C  0.03517683  0.64882346  0.51301709     0.09810
C1684       C  0.02537433  0.65641680  0.54319870    -0.07310
C1685       C  0.99948950  0.66092851  0.54209398    -0.18550
C1686       C  0.48334908  0.65777177  0.51223515     0.09840
S1687       S  0.06717496  0.64121179  0.01104421    -0.33510
S1688       S  0.45171208  0.66569848  0.51324654    -0.33520
H1689       H  0.45306276  0.67335386  0.97984196     0.27850
H1690       H  0.06852583  0.63886903  0.47625832     0.27850
H1691       H  0.02669101  0.64031029  0.96049961     0.18440
H1692       H  0.49197587  0.66746824  0.56458165     0.18450
C1693       C  0.50645532  0.65480231  0.80086034    -0.07390
C1694       C  0.03604787  0.65765614  0.80330707    -0.18510
C1695       C  0.05642892  0.66738313  0.77634998     0.09810
C1696       C  0.04784798  0.67613121  0.74695898    -0.07310
C1697       C  0.51973914  0.67625054  0.74609572    -0.18550
C1698       C  0.49825786  0.66393049  0.77131324     0.09840
S1699       S  0.09254683  0.66750004  0.78053334    -0.33510
S1700       S  0.46008400  0.65775443  0.76105907    -0.33520
H1701       H  0.44345503  0.64068723  0.78778630     0.27850
H1702       H  0.10806807  0.68882734  0.75580017     0.27850
H1703       H  0.04252706  0.65038735  0.82548885     0.18440
H1704       H  0.51251194  0.68227173  0.72347663     0.18450
C1705       C  0.35025412  0.00045078  0.55095274    -0.07390
C1706       C  0.37770024  0.52885338  0.55581935    -0.18510
C1707       C  0.39158354  0.54828071  0.52929476     0.09810
C1708       C  0.37751349  0.53938938  0.99725991    -0.07310
C1709       C  0.34848548  0.01250854  0.99333172    -0.18550
C1710       C  0.33500972  0.99279311  0.01956931     0.09840
S1711       S  0.42804809  0.58311100  0.53751237    -0.33510
S1712       S  0.30022969  0.95635910  0.01039864    -0.33520
H1713       H  0.28811436  0.95431525  0.54209522     0.27850
H1714       H  0.42438622  0.59905411  0.51147047     0.27850
H1715       H  0.38979272  0.53467265  0.57963775     0.18440
H1716       H  0.33755874  0.00525296  0.96890289     0.18450
C1717       C  0.36479554  0.51617034  0.79013130    -0.07390
C1718       C  0.38381489  0.50452556  0.77920671    -0.18510
C1719       C  0.37847486  0.48838971  0.74890865     0.09810
C1720       C  0.35291943  0.98300808  0.72850693    -0.07310
C1721       C  0.33250993  0.49284128  0.74048034    -0.18550
C1722       C  0.33834771  0.50963876  0.77088834     0.09840
S1723       S  0.40798690  0.97959171  0.73635815    -0.33510
S1724       S  0.31288427  0.52426469  0.78222178    -0.33520
H1725       H  0.33675676  0.55409055  0.79196479     0.27850
H1726       H  0.38789177  0.94760683  0.73707169     0.27850
H1727       H  0.40435646  0.50974176  0.79370790     0.18440
H1728       H  0.31281753  0.98891348  0.72524598     0.18450
C1729       C  0.01856592  0.58634044  0.90450105    -0.07390
C1730       C  0.03370939  0.59224119  0.87425165    -0.18510
C1731       C  0.06033060  0.59033340  0.87034164     0.09810
C1732       C  0.07392419  0.58460080  0.89828905    -0.07310
C1733       C  0.05727159  0.57577472  0.92769918    -0.18550
C1734       C  0.02928817  0.57569730  0.93085883     0.09840
S1735       S  0.07508159  0.59571493  0.82877509    -0.33510
S1736       S  0.00841010  0.56058296  0.96844203    -0.33520
H1737       H  0.00745880  0.58739863  0.97770828     0.27850
H1738       H  0.07861050  0.56938178  0.82875896     0.27850
H1739       H  0.02461000  0.59822828  0.85305957     0.18440
H1740       H  0.06638823  0.56954249  0.94866467     0.18450
C1741       C  0.33193078  0.59511998  0.86210981    -0.07390
C1742       C  0.30747632  0.57472942  0.88185084    -0.18510
C1743       C  0.27747933  0.56988483  0.87761394     0.09810
C1744       C  0.27169138  0.58680088  0.85388271    -0.07310
C1745       C  0.29649454  0.60776166  0.83471439    -0.18550
C1746       C  0.32629353  0.61208162  0.83853993     0.09840
S1747       S  0.24776302  0.54050435  0.90202403    -0.33510
S1748       S  0.35613508  0.64013849  0.81312614    -0.33520
H1749       H  0.37922763  0.65067773  0.83799739     0.27850
H1750       H  0.22738348  0.52569956  0.87472520     0.27850
H1751       H  0.31131593  0.56100250  0.89952993     0.18440
H1752       H  0.29289213  0.62135424  0.81668008     0.18450
C1753       C  0.48870051  0.83746777  0.97714776    -0.07390
C1754       C  0.01935583  0.84391969  0.97539506    -0.18510
C1755       C  0.03772065  0.85080946  0.00405856     0.09810
C1756       C  0.02547416  0.85172399  0.53554831    -0.07310
C1757       C  0.99382037  0.84145448  0.53769491    -0.18550
C1758       C  0.47515691  0.83414017  0.50886617     0.09840
S1759       S  0.07734297  0.86035977  0.99816555    -0.33510
S1760       S  0.43438343  0.82125983  0.51329711    -0.33520
H1761       H  0.43335499  0.81737972  0.04771332     0.27850
H1762       H  0.08324411  0.85624237  0.53077887     0.27850
H1763       H  0.02967668  0.84532251  0.95144051     0.18440
H1764       H  0.48432550  0.84163268  0.56170809     0.18450
C1765       C  0.01577722  0.88937028  0.71677057    -0.07390
C1766       C  0.50332108  0.85848441  0.72613615    -0.18510
C1767       C  0.48813376  0.84836120  0.75628139     0.09810
C1768       C  0.48516678  0.86958177  0.77817207    -0.07310
C1769       C  0.99686580  0.90015247  0.76828583    -0.18550
C1770       C  0.01235104  0.91038765  0.73862045     0.09840
S1771       S  0.47378363  0.80830817  0.76513929    -0.33510
S1772       S  0.02813021  0.95108921  0.73174431    -0.33520
H1773       H  0.05897749  0.95725059  0.73171577     0.27850
H1774       H  0.44349853  0.80222965  0.77132890     0.27850
H1775       H  0.50568279  0.84197200  0.71002307     0.18440
H1776       H  0.99485790  0.91691811  0.78434926     0.18450
C1777       C  0.40660312  0.98617087  0.88797322    -0.07390
C1778       C  0.43448501  0.98784283  0.89846839    -0.18510
C1779       C  0.43929991  0.96279151  0.89439584     0.09810
C1780       C  0.41616901  0.93520773  0.87887416    -0.07310
C1781       C  0.38783150  0.93260732  0.86943140    -0.18550
C1782       C  0.38279598  0.95779206  0.87356560     0.09840
S1783       S  0.47497647  0.96697716  0.91070099    -0.33510
S1784       S  0.34600102  0.95203337  0.85916531    -0.33520
H1785       H  0.35944944  0.47873067  0.84066347     0.27850
H1786       H  0.46022365  0.93774539  0.92485388     0.27850
H1787       H  0.45289803  0.00880770  0.91045607     0.18440
H1788       H  0.36999565  0.91121841  0.85749996     0.18450
C1789       C  0.42600694  0.74014604  0.88696789    -0.07390
C1790       C  0.43881072  0.73451026  0.85845312    -0.18510
C1791       C  0.44233251  0.70872547  0.85491870     0.09810
C1792       C  0.43066101  0.68609448  0.87914265    -0.07310
C1793       C  0.41699648  0.69095137  0.90741426    -0.18550
C1794       C  0.41506193  0.71795379  0.91192974     0.09840
S1795       S  0.46500689  0.70835622  0.82052006    -0.33510
S1796       S  0.39851817  0.72244126  0.94987340    -0.33520
H1797       H  0.42675954  0.74785976  0.96152957     0.27850
H1798       H  0.48340957  0.70046122  0.83976670     0.27850
H1799       H  0.44809058  0.75130615  0.83924549     0.18440
H1800       H  0.40807696  0.67378256  0.92627425     0.18450
C1801       C  0.08013921  0.99291481  0.89055334    -0.07390
C1802       C  0.06708823  0.97973681  0.92111413    -0.18510
C1803       C  0.04100394  0.94968911  0.92281405     0.09810
C1804       C  0.02753086  0.93149429  0.89341013    -0.07310
C1805       C  0.04010733  0.94466051  0.86300682    -0.18550
C1806       C  0.06516934  0.97504602  0.86113037     0.09840
S1807       S  0.02656458  0.93570309  0.96327030    -0.33510
S1808       S  0.07548737  0.98969700  0.82014545    -0.33520
H1809       H  0.07711328  0.51808474  0.82881651     0.27850
H1810       H  0.51405832  0.90408904  0.95468992     0.27850
H1811       H  0.07757988  0.99268405  0.94412921     0.18440
H1812       H  0.02945137  0.93150041  0.84014013     0.18450
C1813       C  0.32674509  0.74338339  0.87319419    -0.07390
C1814       C  0.31694602  0.72256462  0.89928518    -0.18510
C1815       C  0.28692152  0.69667259  0.90000192     0.09810
C1816       C  0.26525007  0.69059245  0.87403181    -0.07310
C1817       C  0.27480829  0.71107974  0.84779098    -0.18550
C1818       C  0.30512306  0.73682753  0.84676260     0.09840
S1819       S  0.27733875  0.67285844  0.93559379    -0.33510
S1820       S  0.31434853  0.76035613  0.81108558    -0.33520
H1821       H  0.34071480  0.75793087  0.80372986     0.27850
H1822       H  0.24623088  0.66565852  0.93636331     0.27850
H1823       H  0.33265959  0.72680001  0.91997840     0.18440
H1824       H  0.25883884  0.70635810  0.82720759     0.18450
C1825       C  0.35780815  0.84742303  0.95649615    -0.07390
C1826       C  0.37382708  0.87874532  0.96630057    -0.18510
C1827       C  0.37249667  0.88829387  0.49857502     0.09810
C1828       C  0.35199539  0.86640617  0.52110259    -0.07310
C1829       C  0.33403257  0.83516637  0.51045896    -0.18550
C1830       C  0.33742706  0.82538469  0.97857507     0.09840
S1831       S  0.40003624  0.92828963  0.50977063    -0.33510
S1832       S  0.31686250  0.78455688  0.96781585    -0.33520
H1833       H  0.34410501  0.78343583  0.96190762     0.27850
H1834       H  0.40786814  0.92145022  0.54055624     0.27850
H1835       H  0.39059991  0.89548137  0.94984515     0.18440
H1836       H  0.31782662  0.81830604  0.52712782     0.18450
C1837       C  0.36855526  0.88399681  0.72160970    -0.07390
C1838       C  0.38787757  0.87108875  0.72317695    -0.18510
C1839       C  0.39056795  0.85780948  0.75212402     0.09810
C1840       C  0.37525409  0.85915148  0.78109121    -0.07310
C1841       C  0.35548246  0.87163706  0.77933752    -0.18550
C1842       C  0.35137043  0.88331398  0.74979289     0.09840
S1843       S  0.41209686  0.83762513  0.74967059    -0.33510
S1844       S  0.32574700  0.89916363  0.75046736    -0.33520
H1845       H  0.30922677  0.88327797  0.72133683     0.27850
H1846       H  0.39514836  0.81610108  0.77377140     0.27850
H1847       H  0.39997429  0.87019049  0.70122835     0.18560
H1848       H  0.34374269  0.87304806  0.80134855     0.18450
O1849       O  0.94576114  0.41557533  0.35350073    -0.81400
O1850       O  0.95092558  0.34258010  0.44719476    -0.81420
O1851       O  0.86131081  0.32793461  0.40246942    -0.81430
O1852       O  0.99980514  0.37725531  0.37774000    -0.81370
O1853       O  0.89975355  0.34443118  0.43780412    -0.81500
O1854       O  0.97298905  0.39744454  0.39932093    -0.81410
O1855       O  0.97784320  0.32685361  0.41834764    -0.81400
O1856       O  0.90318501  0.38221764  0.37917844    -0.81440
C1857       C  0.92201402  0.40994391  0.36987445     1.08290
C1858       C  0.97195532  0.33579673  0.44595696     1.08180
C1859       C  0.87297147  0.33897981  0.43091619     1.08310
C1860       C  0.99898979  0.40008918  0.39219012     1.08190
O1861       O  0.97183899  0.38343630  0.32994105    -0.81400
O1862       O  0.86922458  0.28178279  0.40667286    -0.81480
O1863       O  0.86199257  0.33950483  0.33568863    -0.81410
O1864       O  0.93662547  0.28756772  0.36520344    -0.81390
O1865       O  0.92238221  0.28055699  0.41709486    -0.81440
O1866       O  0.91127059  0.36008298  0.32126439    -0.81410
O1867       O  0.96052292  0.33554114  0.32328959    -0.81370
O1868       O  0.87050036  0.29097393  0.35354525    -0.81440
Co1869     Co  0.94044795  0.37679219  0.36393371     1.51530
Co1870     Co  0.91160995  0.31409197  0.42515116     1.51690
Co1871     Co  0.89036532  0.33621877  0.36443907     1.51570
Co1872     Co  0.96611588  0.33174515  0.37132396     1.51470
O1873       O  0.92829878  0.33606928  0.38265892    -1.43330
C1874       C  0.97153496  0.36212422  0.31179629     1.08220
C1875       C  0.85753863  0.27311957  0.37738065     1.08310
C1876       C  0.88277318  0.35211374  0.31410239     1.08240
C1877       C  0.92738294  0.27050273  0.38985452     1.08220
O1878       O  0.96088608  0.11173863  0.31945579    -0.81400
O1879       O  0.92823112  0.03871770  0.40341812    -0.81420
O1880       O  0.48663304  0.10540812  0.38437759    -0.81430
O1881       O  0.86202622  0.03996075  0.34237141    -0.81370
O1882       O  0.97429482  0.08303756  0.43043919    -0.81500
O1883       O  0.90523194  0.06095709  0.31450198    -0.81410
O1884       O  0.87987253  0.01551448  0.38959606    -0.81400
O1885       O  0.98419980  0.15043093  0.35513544    -0.81440
C1886       C  0.98326627  0.13828999  0.32664357     1.08290
C1887       C  0.90437247  0.01461692  0.39360503     1.08180
C1888       C  0.49214501  0.09175553  0.40669384     1.08310
C1889       C  0.87768573  0.03983308  0.31745000     1.08190
O1890       O  0.87551165  0.09505905  0.33784558    -0.81400
O1891       O  0.94702565  0.11901006  0.44832128    -0.81480
O1892       O  0.93583685  0.14509757  0.40023454    -0.81410
O1893       O  0.88070813  0.05797675  0.44223709    -0.81390
O1894       O  0.92213634  0.05856594  0.46433819    -0.81440
O1895       O  0.93175967  0.14616843  0.34650266    -0.81410
O1896       O  0.86955726  0.08906123  0.39123434    -0.81370
O1897       O  0.99039417  0.15286524  0.42444861    -0.81440
Co1898     Co  0.91888736  0.10232612  0.33235579     1.51530
Co1899     Co  0.93271671  0.07699038  0.42303035     1.51690
Co1900     Co  0.96019070  0.12405085  0.39361127     1.51570
Co1901     Co  0.87748197  0.05430801  0.39035998     1.51470
O1902       O  0.92405518  0.08642160  0.37685936    -1.43330
C1903       C  0.86131231  0.09465395  0.36407928     1.08220
C1904       C  0.97562641  0.14143791  0.45073718     1.08310
C1905       C  0.93230350  0.15747809  0.37523868     1.08240
C1906       C  0.89454024  0.05306871  0.46669711     1.08220
O1907       O  0.52908756  0.40046495  0.11430923    -0.81400
O1908       O  0.65981852  0.48304590  0.07153202    -0.81420
O1909       O  0.59335391  0.48654947  0.14999122    -0.81430
O1910       O  0.56625211  0.39910346  0.05475157    -0.81370
O1911       O  0.62554517  0.50310338  0.10833378    -0.81500
O1912       O  0.54520440  0.36438469  0.09274537    -0.81410
O1913       O  0.61832199  0.45176212  0.04234587    -0.81400
O1914       O  0.55211038  0.44817813  0.10971995    -0.81440
C1915       C  0.52739954  0.42360176  0.10627421     1.08290
C1916       C  0.64524130  0.47461389  0.04423600     1.08180
C1917       C  0.60747015  0.50655504  0.12809012     1.08310
C1918       C  0.54643412  0.37217930  0.06260467     1.08190
O1919       O  0.59439644  0.38055929  0.14125237    -0.81400
O1920       O  0.64133354  0.48215170  0.16470054    -0.81480
O1921       O  0.54498261  0.42738563  0.17657240    -0.81410
O1922       O  0.65478037  0.42939834  0.07688595    -0.81390
O1923       O  0.66424743  0.45206453  0.12698410    -0.81440
O1924       O  0.53947727  0.38003249  0.16851833    -0.81410
O1925       O  0.60174592  0.37668150  0.08800453    -0.81370
O1926       O  0.60307804  0.43893560  0.18005311    -0.81440
Co1927     Co  0.56680704  0.39775856  0.12973539     1.51530
Co1928     Co  0.64437048  0.47669100  0.11732217     1.51690
Co1929     Co  0.57705801  0.44070942  0.14266552     1.51570
Co1930     Co  0.60954140  0.41561088  0.06756341     1.51470
O1931       O  0.60278731  0.43674655  0.10749747    -1.43330
C1932       C  0.59935524  0.36663712  0.11688786     1.08220
C1933       C  0.62730432  0.46439502  0.18753749     1.08310
C1934       C  0.53378308  0.39919686  0.18567386     1.08240
C1935       C  0.67019705  0.43790026  0.10422222     1.08220
O1936       O  0.65609157  0.11041736  0.32292645    -0.81400
O1937       O  0.62484781  0.03399730  0.36402509    -0.81420
O1938       O  0.67570972  0.06153565  0.31497746    -0.81430
O1939       O  0.62001254  0.09048992  0.42458036    -0.81370
O1940       O  0.66828662  0.02025781  0.34103579    -0.81500
O1941       O  0.62032245  0.09872038  0.37164254    -0.81410
O1942       O  0.62299567  0.03772306  0.41827307    -0.81400
O1943       O  0.70344250  0.12549248  0.31187887    -0.81440
C1944       C  0.67707869  0.12014591  0.30239115     1.08290
C1945       C  0.61034473  0.02353556  0.39067135     1.08180
C1946       C  0.66832846  0.03255987  0.31422458     1.08310
C1947       C  0.60615020  0.09077060  0.39819737     1.08190
O1948       O  0.66625320  0.14788353  0.41332582    -0.81400
O1949       O  0.71890847  0.07120536  0.36982893    -0.81480
O1950       O  0.73401874  0.13578628  0.37510435    -0.81410
O1951       O  0.68941766  0.07374475  0.43833595    -0.81390
O1952       O  0.66984745  0.03296342  0.40546501    -0.81440
O1953       O  0.70964126  0.16115716  0.36304569    -0.81410
O1954       O  0.68477324  0.12571489  0.44450827    -0.81370
O1955       O  0.73748176  0.09900253  0.32571677    -0.81440
Co1956     Co  0.66383675  0.12776751  0.36807641     1.51530
Co1957     Co  0.67092709  0.05482391  0.36553532     1.51690
Co1958     Co  0.70416974  0.09885999  0.34818819     1.51570
Co1959     Co  0.65603370  0.08281275  0.42886684     1.51470
O1960       O  0.67198289  0.09387523  0.38181840    -1.43330
C1961       C  0.67676754  0.14584036  0.44130060     1.08220
C1962       C  0.74112970  0.08480191  0.34911581     1.08310
C1963       C  0.73454123  0.16117315  0.37146106     1.08240
C1964       C  0.68294890  0.04622128  0.43260508     1.08220
O1965       O  0.53751452  0.10498234  0.16918108    -0.81400
O1966       O  0.61910330  0.20140310  0.04947709    -0.81420
O1967       O  0.53949991  0.17857923  0.09854588    -0.81430
O1968       O  0.62354274  0.13920073  0.12617328    -0.81370
O1969       O  0.56585173  0.15870839  0.07772031    -0.81500
O1970       O  0.57420024  0.12118826  0.11691444    -0.81410
O1971       O  0.64525371  0.18837767  0.08415423    -0.81400
O1972       O  0.52407172  0.13915794  0.15119831    -0.81440
C1973       C  0.51723238  0.11143710  0.15921929     1.08290
C1974       C  0.63960432  0.19362615  0.05426925     1.08180
C1975       C  0.54351140  0.16349434  0.07507061     1.08310
C1976       C  0.59724811  0.11702746  0.11678878     1.08190
O1977       O  0.60073597  0.13366180  0.18296086    -0.81400
O1978       O  0.58878644  0.22773339  0.08939406    -0.81480
O1979       O  0.56247149  0.19622597  0.19375736    -0.81410
O1980       O  0.66177773  0.22940067  0.14537835    -0.81390
O1981       O  0.64013823  0.23689578  0.10310188    -0.81440
O1982       O  0.56723752  0.15660708  0.20413832    -0.81410
O1983       O  0.63978376  0.18071342  0.18385249    -0.81370
O1984       O  0.58079358  0.23101472  0.14226664    -0.81440
Co1985     Co  0.57116230  0.14231590  0.15800581     1.51530
Co1986     Co  0.60379554  0.19606268  0.09321599     1.51690
Co1987     Co  0.55551802  0.18630921  0.14609586     1.51570
Co1988     Co  0.63917871  0.18474743  0.13563422     1.51470
O1989       O  0.59644250  0.18393159  0.13997747    -1.43330
C1990       C  0.62686357  0.15401882  0.19511661     1.08220
C1991       C  0.58732097  0.24331675  0.11466849     1.08310
C1992       C  0.56187850  0.17762270  0.21405692     1.08240
C1993       C  0.66071899  0.24733692  0.12520436     1.08220
O1994       O  0.90312453  0.43647837  0.10841013    -0.81400
O1995       O  0.84950192  0.45510492  0.06493753    -0.81420
O1996       O  0.83444362  0.35944234  0.07761648    -0.81430
O1997       O  0.88370683  0.48604753  0.13231660    -0.81370
O1998       O  0.85079244  0.40387916  0.05536445    -0.81500
O1999       O  0.91647252  0.47695420  0.16083374    -0.81410
O2000       O  0.83214627  0.47469986  0.10253617    -0.81400
O2001       O  0.88387220  0.38800014  0.12183464    -0.81440
C2002       C  0.90574960  0.41246237  0.10965217     1.08290
C2003       C  0.84366690  0.47590703  0.07421490     1.08180
C2004       C  0.84614757  0.37694199  0.05335090     1.08310
C2005       C  0.91047820  0.49535363  0.14604372     1.08190
O2006       O  0.85880350  0.45151468  0.18565736    -0.81400
O2007       O  0.78691485  0.36724870  0.07893649    -0.81480
O2008       O  0.83922771  0.38099371  0.17438201    -0.81410
O2009       O  0.79236723  0.42425720  0.14397311    -0.81390
O2010       O  0.78692758  0.42070559  0.08956701    -0.81440
O2011       O  0.88715642  0.41727805  0.17545336    -0.81410
O2012       O  0.83769131  0.47986452  0.17160211    -0.81370
O2013       O  0.79467016  0.35829482  0.12994092    -0.81440
Co2014     Co  0.87958700  0.44350234  0.14383540     1.51530
Co2015     Co  0.82016671  0.41202346  0.07421601     1.51690
Co2016     Co  0.83804030  0.37411893  0.12594582     1.51570
Co2017     Co  0.83789355  0.45135275  0.13964638     1.51470
O2018       O  0.84079069  0.41584405  0.11838885    -1.43330
C2019       C  0.84943526  0.47092577  0.19370023     1.08220
C2020       C  0.77665666  0.35349764  0.10596853     1.08310
C2021       C  0.86479251  0.39516782  0.18946945     1.08240
C2022       C  0.77645140  0.42136625  0.11806992     1.08220
C2023       C  0.98600745  0.08603040  0.15338799    -0.07390
C2024       C  0.97992932  0.06935102  0.12301061    -0.18510
C2025       C  0.95382322  0.04008162  0.11870033     0.09810
C2026       C  0.93384445  0.02767519  0.14552238    -0.07310
C2027       C  0.93865813  0.04537465  0.17488999    -0.18550
C2028       C  0.96467734  0.07458777  0.17909100     0.09840
S2029       S  0.94927590  0.01875504  0.08003483    -0.33510
S2030       S  0.97082357  0.09501623  0.21847007    -0.33520
H2031       H  0.98648777  0.12445374  0.20499352     0.27850
H2032       H  0.91708986  0.49912721  0.08123310     0.27850
H2033       H  0.99665551  0.07830832  0.10337664     0.18440
H2034       H  0.92289226  0.03574749  0.19524166     0.18450
C2035       C  0.74400213  0.33008493  0.11080883    -0.07390
C2036       C  0.73572570  0.31931415  0.14326007    -0.18510
C2037       C  0.70686066  0.29449764  0.14987030     0.09810
C2038       C  0.68571554  0.27942704  0.12347277    -0.07310
C2039       C  0.69223632  0.29243321  0.09198673    -0.18550
C2040       C  0.72131160  0.31724973  0.08520064     0.09840
S2041       S  0.69878896  0.28284499  0.19221045    -0.33510
S2042       S  0.72843711  0.32922849  0.04302296    -0.33520
H2043       H  0.75241210  0.32216993  0.03947393     0.27850
H2044       H  0.66665935  0.27133024  0.18911732     0.27850
H2045       H  0.75201265  0.32992334  0.16395379     0.18440
H2046       H  0.67575927  0.28136162  0.07151613     0.18450
C2047       C  0.64267104  0.14559442  0.22061911    -0.07390
C2048       C  0.62705999  0.11501382  0.23109467    -0.18510
C2049       C  0.64003880  0.10505905  0.25483336     0.09810
C2050       C  0.66937509  0.12595470  0.26925839    -0.07310
C2051       C  0.68615219  0.15587594  0.25746116    -0.18550
C2052       C  0.67308491  0.16609789  0.23362384     0.09840
S2053       S  0.61716965  0.06567565  0.26738480    -0.33510
S2054       S  0.69598278  0.20596260  0.22268013    -0.33520
H2055       H  0.67321957  0.21334096  0.23252315     0.27850
H2056       H  0.64271587  0.06109095  0.26770122     0.27850
H2057       H  0.60417574  0.09859098  0.22120124     0.18440
H2058       H  0.70833103  0.17224464  0.26900547     0.18450
C2059       C  0.65548410  0.18762022  0.02579119    -0.07390
C2060       C  0.66767979  0.16790118  0.03065284    -0.18510
C2061       C  0.67771944  0.15634079  0.00421301     0.09810
C2062       C  0.67496330  0.16379997  0.47114403    -0.07310
C2063       C  0.66531037  0.18573062  0.46666301    -0.18550
C2064       C  0.65628001  0.19811002  0.99345177     0.09840
S2065       S  0.69194521  0.13073091  0.01489714    -0.33510
S2066       S  0.64637442  0.22738002  0.48465790    -0.33520
H2067       H  0.65949832  0.24476393  0.01442473     0.27850
H2068       H  0.71862416  0.14598207  0.49566967     0.27850
H2069       H  0.66828329  0.16019958  0.05529398     0.18440
H2070       H  0.66394380  0.19277345  0.44190700     0.18450
C2071       C  0.66061777  0.49121590  0.01467007    -0.07390
C2072       C  0.68400625  0.02240589  0.01857397    -0.18510
C2073       C  0.69612468  0.04054354  0.99110647     0.09810
C2074       C  0.68354036  0.02746377  0.45941470    -0.07310
C2075       C  0.66394898  0.49530035  0.45536587    -0.18550
C2076       C  0.65244788  0.47702430  0.48261748     0.09840
S2077       S  0.72662378  0.08013436  0.99814485    -0.33510
S2078       S  0.62691630  0.43615783  0.47444660    -0.33520
H2079       H  0.63907449  0.42716869  0.00062116     0.27850
H2080       H  0.73980075  0.08241390  0.96679777     0.27850
H2081       H  0.69202240  0.03310291  0.04311410     0.18440
H2082       H  0.65537997  0.48450467  0.43096439     0.18450
C2083       C  0.63902295  0.47786675  0.22192719    -0.07390
C2084       C  0.66458014  0.00850906  0.22378499    -0.18510
C2085       C  0.67425628  0.02649622  0.25320008     0.09810
C2086       C  0.65905072  0.01368149  0.28268090    -0.07310
C2087       C  0.63526695  0.98231129  0.28194158    -0.18550
C2088       C  0.62503111  0.46433055  0.25195534     0.09840
S2089       S  0.70685247  0.06561575  0.25253674    -0.33510
S2090       S  0.59457234  0.42464745  0.25386080    -0.33520
H2091       H  0.60798389  0.41331819  0.23069653     0.27850
H2092       H  0.70856956  0.06815153  0.21790959     0.27850
H2093       H  0.67696761  0.01925162  0.20168372     0.18440
H2094       H  0.62421950  0.47186926  0.30479351     0.18450
C2095       C  0.60231049  0.03367310  0.12470575    -0.07390
C2096       C  0.60908246  0.04891420  0.09436636    -0.18510
C2097       C  0.60454387  0.07429841  0.08952081     0.09810
C2098       C  0.59313076  0.08525397  0.11542188    -0.07310
C2099       C  0.58449420  0.06892439  0.14484051    -0.18550
C2100       C  0.58945742  0.04397815  0.15005978     0.09840
S2101       S  0.61311419  0.09138324  0.04955470    -0.33510
S2102       S  0.58057993  0.02783717  0.19049842    -0.33520
H2103       H  0.60921915  0.02894887  0.19473378     0.27850
H2104       H  0.59516999  0.10592869  0.05271620     0.27850
H2105       H  0.61791209  0.04097183  0.07407264     0.18440
H2106       H  0.57560523  0.07691088  0.16498970     0.18450
C2107       C  0.59250823  0.27560289  0.11376878    -0.07390
C2108       C  0.60488894  0.29534814  0.14255876    -0.18510
C2109       C  0.60749901  0.32492496  0.14531148     0.09810
C2110       C  0.59767532  0.33564603  0.11842141    -0.07310
C2111       C  0.58524944  0.31560406  0.08983012    -0.18550
C2112       C  0.58239511  0.28615454  0.08728039     0.09840
S2113       S  0.62300505  0.34681038  0.18395551    -0.33510
S2114       S  0.56352413  0.26243944  0.05050145    -0.33520
H2115       H  0.54426167  0.23558714  0.06774696     0.27850
H2116       H  0.63396528  0.37649411  0.17207151     0.27850
H2117       H  0.61244112  0.28750082  0.16348450     0.18440
H2118       H  0.57621924  0.32229322  0.06932923     0.18450
C2119       C  0.69734731  0.43383510  0.10870955    -0.07390
C2120       C  0.69428210  0.40830923  0.12557733    -0.18510
C2121       C  0.71985978  0.40422426  0.13139760     0.09810
C2122       C  0.74912991  0.42576978  0.11913631    -0.07310
C2123       C  0.75198287  0.45142232  0.10253435    -0.18550
C2124       C  0.72668699  0.45579268  0.09746346     0.09840
S2125       S  0.71286990  0.37056686  0.15328505    -0.33510
S2126       S  0.73306617  0.48936427  0.07558301    -0.33520
H2127       H  0.71499084  0.49662834  0.09672903     0.27850
H2128       H  0.74323551  0.38221312  0.16541751     0.27850
H2129       H  0.67171552  0.39126795  0.13401549     0.18440
H2130       H  0.77427815  0.46830731  0.09318596     0.18450
C2131       C  0.93597184  0.41431281  0.10081192    -0.07390
C2132       C  0.96259911  0.44373101  0.09864997    -0.18510
C2133       C  0.99255425  0.44754661  0.09774766     0.09810
C2134       C  0.99671438  0.42140088  0.09888580    -0.07310
C2135       C  0.96990199  0.39187865  0.09806512    -0.18550
C2136       C  0.93994634  0.38803293  0.09839542     0.09840
S2137       S  0.52437834  0.48664283  0.09776485    -0.33510
S2138       S  0.90795214  0.34884149  0.09603762    -0.33520
H2139       H  0.89018943  0.35565945  0.07436278     0.27850
H2140       H  0.53274639  0.48551721  0.13079835     0.27850
H2141       H  0.96036720  0.46429334  0.09975636     0.18440
H2142       H  0.97216497  0.37138276  0.09849834     0.18450
C2143       C  0.99304240  0.14978746  0.48263524    -0.07390
C2144       C  0.51934254  0.14642359  0.48337239    -0.18510
C2145       C  0.53517734  0.14882383  0.01301308     0.09810
C2146       C  0.52537425  0.15641680  0.04319453    -0.07310
C2147       C  0.49948962  0.16092877  0.04208917    -0.18550
C2148       C  0.98334860  0.15777034  0.01223601     0.09840
S2149       S  0.56726412  0.14136837  0.51097343    -0.33510
S2150       S  0.95171207  0.16569777  0.01324745    -0.33520
H2151       H  0.95306219  0.17335388  0.47984198     0.27850
H2152       H  0.56852653  0.13886887  0.97625524     0.27850
H2153       H  0.52674715  0.14043962  0.46045523     0.18440
H2154       H  0.99197593  0.16746737  0.06458238     0.18450
C2155       C  0.00645385  0.15480123  0.30085961    -0.07390
C2156       C  0.53603866  0.15764668  0.30330174    -0.18510
C2157       C  0.55642068  0.16737316  0.27634569     0.09810
C2158       C  0.54784386  0.17612741  0.24695610    -0.07310
C2159       C  0.01973885  0.17624921  0.24609484    -0.18550
C2160       C  0.99825732  0.16393002  0.27131233     0.09840
S2161       S  0.59253336  0.16747946  0.28052856    -0.33510
S2162       S  0.96008416  0.15775554  0.26105780    -0.33520
H2163       H  0.94345548  0.14069178  0.28778697     0.27850
H2164       H  0.60806019  0.18881029  0.25580000     0.27850
H2165       H  0.54251449  0.15037315  0.32548235     0.18440
H2166       H  0.01251234  0.18227095  0.22347567     0.18450
C2167       C  0.85025526  0.50045310  0.05095414    -0.07390
C2168       C  0.87770054  0.02885276  0.05581863    -0.18510
C2169       C  0.89158391  0.04827989  0.02929392     0.09810
C2170       C  0.87751185  0.03938933  0.49725971    -0.07310
C2171       C  0.84848443  0.51250899  0.49333222    -0.18550
C2172       C  0.83500876  0.49279357  0.51956984     0.09840
S2173       S  0.92804892  0.08310973  0.03751112    -0.33510
S2174       S  0.80022819  0.45635989  0.51039959    -0.33520
H2175       H  0.78811475  0.45431697  0.04209654     0.27850
H2176       H  0.92438737  0.09905291  0.01146911     0.27850
H2177       H  0.88979316  0.03467199  0.07963696     0.18440
H2178       H  0.83755747  0.50525375  0.46890346     0.18450
C2179       C  0.86479366  0.01616985  0.29013079    -0.07390
C2180       C  0.88381337  0.00452536  0.27920658    -0.18510
C2181       C  0.87847364  0.98838927  0.24890866     0.09810
C2182       C  0.85291973  0.48300607  0.22851153    -0.07310
C2183       C  0.83250845  0.99284025  0.24047967    -0.18550
C2184       C  0.83834587  0.00963785  0.27088755     0.09840
S2185       S  0.90798552  0.47958672  0.23636428    -0.33510
S2186       S  0.81288201  0.02426342  0.28222045    -0.33520
H2187       H  0.83675413  0.05408930  0.29196399     0.27850
H2188       H  0.88788763  0.44760208  0.23707210     0.27850
H2189       H  0.90435494  0.00974190  0.29370796     0.18440
H2190       H  0.81281862  0.48891274  0.22525016     0.18450
C2191       C  0.51857997  0.08637236  0.40452809    -0.07390
C2192       C  0.53370060  0.09222904  0.37426655    -0.18510
C2193       C  0.56031603  0.09030999  0.37035696     0.09810
C2194       C  0.57392998  0.08461679  0.39831439    -0.07310
C2195       C  0.55730075  0.07583636  0.42774200    -0.18550
C2196       C  0.52932205  0.07576739  0.43090474     0.09840
S2197       S  0.57503006  0.09561880  0.32877635    -0.33510
S2198       S  0.50847937  0.06071512  0.46852139    -0.33520
H2199       H  0.50748892  0.08752264  0.47771768     0.27850
H2200       H  0.57859744  0.06931059  0.32882504     0.27850
H2201       H  0.52458477  0.09818526  0.35306405     0.18440
H2202       H  0.56643355  0.06963619  0.44871946     0.18450
C2203       C  0.83192718  0.09511950  0.36210923    -0.07390
C2204       C  0.80747229  0.07472901  0.38184989    -0.18510
C2205       C  0.77747557  0.06988550  0.37761334     0.09810
C2206       C  0.77168813  0.08680252  0.35388281    -0.07310
C2207       C  0.79649165  0.10776311  0.33471473    -0.18550
C2208       C  0.82629042  0.11208205  0.33853995     0.09840
S2209       S  0.74775878  0.04050499  0.40202293    -0.33510
S2210       S  0.85613251  0.14013909  0.31312680    -0.33520
H2211       H  0.87922484  0.15067753  0.33799826     0.27850
H2212       H  0.72737851  0.02570188  0.37472428     0.27850
H2213       H  0.81131136  0.06100141  0.39952854     0.18440
H2214       H  0.79288971  0.12135642  0.31668099     0.18450
C2215       C  0.98870279  0.33746911  0.47714832    -0.07390
C2216       C  0.51935710  0.34392222  0.47539575    -0.18510
C2217       C  0.53772276  0.35081330  0.50405896     0.09810
C2218       C  0.52547447  0.35172410  0.03554798    -0.07310
C2219       C  0.49382063  0.34145441  0.03769431    -0.18550
C2220       C  0.97515588  0.33413912  0.00886580     0.09840
S2221       S  0.57734493  0.36036327  0.49816534    -0.33510
S2222       S  0.93438239  0.32125874  0.01329679    -0.33520
H2223       H  0.93335673  0.31737963  0.54771353     0.27850
H2224       H  0.58324508  0.35624377  0.03077898     0.27850
H2225       H  0.52967738  0.34532426  0.45144101     0.18440
H2226       H  0.98432450  0.34163185  0.06170773     0.18450
C2227       C  0.51577763  0.38937141  0.21677139    -0.07390
C2228       C  0.00332002  0.35848202  0.22613760    -0.18510
C2229       C  0.98813286  0.34835958  0.25628298     0.09810
C2230       C  0.98516614  0.36958079  0.27817291    -0.07310
C2231       C  0.49686674  0.40015435  0.26828670    -0.18550
C2232       C  0.51235169  0.41038910  0.23862106     0.09840
S2233       S  0.97378263  0.30830674  0.26514199    -0.33510
S2234       S  0.52813080  0.45109054  0.23174431    -0.33520
H2235       H  0.55897807  0.45725189  0.23171549     0.27850
H2236       H  0.94349762  0.30222851  0.27133167     0.27850
H2237       H  0.00568175  0.34196931  0.21002502     0.18440
H2238       H  0.49485898  0.41692018  0.28434997     0.18450
C2239       C  0.90660319  0.48617154  0.38797527    -0.07390
C2240       C  0.93448518  0.48784351  0.39847002    -0.18510
C2241       C  0.93930031  0.46279244  0.39439672     0.09810
C2242       C  0.91616942  0.43520877  0.37887494    -0.07310
C2243       C  0.88783162  0.43260817  0.36943292    -0.18550
C2244       C  0.88279591  0.45779279  0.37356781     0.09840
S2245       S  0.97497720  0.46697826  0.41070105    -0.33510
S2246       S  0.84600086  0.45203425  0.35916806    -0.33520
H2247       H  0.85944799  0.97873019  0.34066288     0.27850
H2248       H  0.96022459  0.43774673  0.42485446     0.27850
H2249       H  0.95289814  0.50880825  0.41045800     0.18440
H2250       H  0.86999572  0.41121928  0.35750149     0.18450
C2251       C  0.92600784  0.24014747  0.38696938    -0.07390
C2252       C  0.93881127  0.23451149  0.35845444    -0.18510
C2253       C  0.94233200  0.20872609  0.35491946     0.09810
C2254       C  0.93065998  0.18609488  0.37914315    -0.07310
C2255       C  0.91699572  0.19095196  0.40741491    -0.18550
C2256       C  0.91506202  0.21795483  0.41193080     0.09840
S2257       S  0.96500571  0.20835625  0.32052040    -0.33510
S2258       S  0.89851799  0.22244228  0.44987426    -0.33520
H2259       H  0.92675956  0.24786003  0.46153117     0.27850
H2260       H  0.98340821  0.20046079  0.33976671     0.27850
H2261       H  0.94809164  0.25130760  0.33924705     0.18440
H2262       H  0.90807571  0.17378292  0.42627464     0.18450
C2263       C  0.58013923  0.49291608  0.39055408    -0.07390
C2264       C  0.56708822  0.47973856  0.42111504    -0.18510
C2265       C  0.54100391  0.44969092  0.42281533     0.09810
C2266       C  0.52753087  0.43149572  0.39341163    -0.07310
C2267       C  0.54010737  0.44466147  0.36300816    -0.18550
C2268       C  0.56516939  0.47504689  0.36113132     0.09840
S2269       S  0.52656454  0.43570548  0.46327176    -0.33510
S2270       S  0.57548748  0.48969711  0.32014611    -0.33520
H2271       H  0.57711386  0.01808031  0.32881128     0.27850
H2272       H  0.01406051  0.40409101  0.45468981     0.27850
H2273       H  0.57757986  0.49268614  0.44412996     0.18440
H2274       H  0.52945148  0.43150106  0.34014162     0.18450
C2275       C  0.82675144  0.24338458  0.37319511    -0.07390
C2276       C  0.81695415  0.22256459  0.39928486    -0.18510
C2277       C  0.78692991  0.19667249  0.40000209     0.09810
C2278       C  0.76525751  0.19059397  0.37403371    -0.07310
C2279       C  0.77481442  0.21108186  0.34779361    -0.18550
C2280       C  0.80512881  0.23682949  0.34676458     0.09840
S2281       S  0.77734853  0.17285697  0.43559270    -0.33510
S2282       S  0.81435263  0.26035929  0.31108866    -0.33520
H2283       H  0.84071909  0.25793502  0.30373084     0.27850
H2284       H  0.74624181  0.16566047  0.43636722     0.27850
H2285       H  0.83266868  0.22679948  0.41997697     0.18440
H2286       H  0.75884388  0.20636123  0.32721158     0.18450
C2287       C  0.85781014  0.34742378  0.45649916    -0.07390
C2288       C  0.87382814  0.37874619  0.46630314    -0.18510
C2289       C  0.87249654  0.38829505  0.99857263     0.09810
C2290       C  0.85199451  0.36640823  0.02110042    -0.07310
C2291       C  0.83403079  0.33516839  0.01045714    -0.18550
C2292       C  0.83743022  0.32538536  0.47857882     0.09840
S2293       S  0.90003681  0.42829074  0.00976771    -0.33510
S2294       S  0.81686648  0.28455746  0.46782011    -0.33520
H2295       H  0.84410927  0.28343743  0.46191009     0.27850
H2296       H  0.90786801  0.42145177  0.04055406     0.27850
H2297       H  0.89060013  0.39548240  0.44984722     0.18440
H2298       H  0.81782427  0.31830867  0.02712612     0.18450
C2299       C  0.86855271  0.38399301  0.22160968    -0.07390
C2300       C  0.88787572  0.37108578  0.22317744    -0.18510
C2301       C  0.89056696  0.35780763  0.25212502     0.09810
C2302       C  0.87525343  0.35915013  0.28109229    -0.07310
C2303       C  0.85548092  0.37163469  0.27933804    -0.18550
C2304       C  0.85136795  0.38331034  0.24979287     0.09840
S2305       S  0.91209662  0.33762407  0.24967216    -0.33510
S2306       S  0.82574363  0.39915894  0.25046668    -0.33520
H2307       H  0.80922348  0.38327221  0.22133649     0.27850
H2308       H  0.89514893  0.31610064  0.27377379     0.27850
H2309       H  0.89997257  0.37018752  0.20122896     0.18560
H2310       H  0.84374127  0.37304598  0.30134903     0.18450
O2311       O  0.94575576  0.41557011  0.85349614    -0.81400
O2312       O  0.95092511  0.34257891  0.94719329    -0.81420
O2313       O  0.86130923  0.32793089  0.90246831    -0.81430
O2314       O  0.99980300  0.37725304  0.87773826    -0.81370
O2315       O  0.89975246  0.34442910  0.93780281    -0.81500
O2316       O  0.97298619  0.39744247  0.89931749    -0.81410
O2317       O  0.97784259  0.32685206  0.91834654    -0.81400
O2318       O  0.90318051  0.38221168  0.87917453    -0.81440
C2319       C  0.92200772  0.40993750  0.86986873     1.08290
C2320       C  0.97195490  0.33579560  0.94595578     1.08180
C2321       C  0.87297042  0.33897778  0.93091464     1.08310
C2322       C  0.99898701  0.40008689  0.89218738     1.08190
O2323       O  0.97183668  0.38343367  0.82993869    -0.81400
O2324       O  0.86922375  0.28178008  0.90667312    -0.81480
O2325       O  0.86198968  0.33949799  0.83568580    -0.81410
O2326       O  0.93662460  0.28756565  0.86520247    -0.81390
O2327       O  0.92238198  0.28055545  0.91709422    -0.81440
O2328       O  0.91126782  0.36007676  0.82126182    -0.81410
O2329       O  0.96052245  0.33553905  0.82328748    -0.81370
O2330       O  0.87049974  0.29096898  0.85354496    -0.81440
Co2331     Co  0.94044501  0.37678831  0.86393085     1.51530
Co2332     Co  0.91160928  0.31409004  0.92515036     1.51690
Co2333     Co  0.89036300  0.33621360  0.86443712     1.51570
Co2334     Co  0.96611482  0.33174301  0.87132247     1.51470
O2335       O  0.92829743  0.33606647  0.88265753    -1.43330
C2336       C  0.97153388  0.36212218  0.81179409     1.08220
C2337       C  0.85753788  0.27311574  0.87738101     1.08310
C2338       C  0.88277052  0.35210781  0.81409989     1.08240
C2339       C  0.92738229  0.27050096  0.88985380     1.08220
O2340       O  0.96088571  0.11173778  0.81945554    -0.81400
O2341       O  0.92823153  0.03871709  0.90341731    -0.81420
O2342       O  0.48663299  0.10540829  0.88437718    -0.81430
O2343       O  0.86202589  0.03995968  0.84237199    -0.81370
O2344       O  0.97429498  0.08303713  0.93043905    -0.81500
O2345       O  0.90523144  0.06095603  0.81450215    -0.81410
O2346       O  0.87987256  0.01551368  0.88959695    -0.81400
O2347       O  0.98419931  0.15043008  0.85513526    -0.81440
C2348       C  0.98326583  0.13828921  0.82664337     1.08290
C2349       C  0.90437264  0.01461614  0.89360509     1.08180
C2350       C  0.49214484  0.09175572  0.90669351     1.08310
C2351       C  0.87768524  0.03983206  0.81745043     1.08190
O2352       O  0.87551115  0.09505796  0.83784551    -0.81400
O2353       O  0.94702544  0.11900908  0.94832114    -0.81480
O2354       O  0.93583630  0.14509640  0.90023437    -0.81410
O2355       O  0.88070879  0.05797708  0.94223728    -0.81390
O2356       O  0.92213650  0.05856487  0.96433773    -0.81440
O2357       O  0.93175918  0.14616726  0.84650245    -0.81410
O2358       O  0.86955697  0.08906042  0.89123431    -0.81370
O2359       O  0.99039381  0.15286454  0.92444843    -0.81440
Co2360     Co  0.91888691  0.10232508  0.83235565     1.51530
Co2361     Co  0.93271684  0.07698954  0.92302998     1.51690
Co2362     Co  0.96019035  0.12405002  0.89361113     1.51570
Co2363     Co  0.87748190  0.05430731  0.89036034     1.51470
O2364       O  0.92405493  0.08642078  0.87685924    -1.43330
C2365       C  0.86131187  0.09465295  0.86407923     1.08220
C2366       C  0.97562614  0.14143708  0.95073701     1.08310
C2367       C  0.93230293  0.15747683  0.87523848     1.08240
C2368       C  0.89454064  0.05306830  0.96669694     1.08220
O2369       O  0.52908742  0.40046452  0.61430925    -0.81400
O2370       O  0.65981825  0.48304622  0.57153182    -0.81420
O2371       O  0.59335359  0.48654913  0.64999163    -0.81430
O2372       O  0.56625211  0.39910335  0.55475154    -0.81370
O2373       O  0.62554444  0.50310337  0.60833385    -0.81500
O2374       O  0.54520464  0.36438458  0.59274536    -0.81410
O2375       O  0.61832178  0.45176206  0.54234579    -0.81400
O2376       O  0.55211004  0.44817774  0.60972063    -0.81440
C2377       C  0.52739927  0.42360133  0.60627459     1.08290
C2378       C  0.64524101  0.47461396  0.54423581     1.08180
C2379       C  0.60746936  0.50655474  0.62809044     1.08310
C2380       C  0.54643423  0.37217917  0.56260467     1.08190
O2381       O  0.59439682  0.38055962  0.64125236    -0.81400
O2382       O  0.64133345  0.48215207  0.66470046    -0.81480
O2383       O  0.54498288  0.42738508  0.67657277    -0.81410
O2384       O  0.65478039  0.42939857  0.57688588    -0.81390
O2385       O  0.66424764  0.45206509  0.62698389    -0.81440
O2386       O  0.53947738  0.38003194  0.66851817    -0.81410
O2387       O  0.60174618  0.37668170  0.58800452    -0.81370
O2388       O  0.60307868  0.43893554  0.68005315    -0.81440
Co2389     Co  0.56680712  0.39775850  0.62973538     1.51530
Co2390     Co  0.64437026  0.47669130  0.61732203     1.51690
Co2391     Co  0.57705812  0.44070916  0.64266582     1.51570
Co2392     Co  0.60954142  0.41561095  0.56756337     1.51470
O2393       O  0.60278725  0.43674660  0.60749739    -1.43330
C2394       C  0.59935570  0.36663748  0.61688790     1.08220
C2395       C  0.62730499  0.46439502  0.68753740     1.08310
C2396       C  0.53378326  0.39919623  0.68567394     1.08240
C2397       C  0.67019695  0.43790034  0.60422222     1.08220
O2398       O  0.65609079  0.11041581  0.82292687    -0.81400
O2399       O  0.62484686  0.03399569  0.86402562    -0.81420
O2400       O  0.67570917  0.06153483  0.81497811    -0.81430
O2401       O  0.62001146  0.09048857  0.92458065    -0.81370
O2402       O  0.66828609  0.02025682  0.84103618    -0.81500
O2403       O  0.62032147  0.09871855  0.87164270    -0.81410
O2404       O  0.62299462  0.03772159  0.91827360    -0.81400
O2405       O  0.70344190  0.12549161  0.81187977    -0.81440
C2406       C  0.67707808  0.12014479  0.80239178     1.08290
C2407       C  0.61034374  0.02353394  0.89067190     1.08180
C2408       C  0.66832807  0.03255913  0.81422508     1.08310
C2409       C  0.60614926  0.09076931  0.89819756     1.08190
O2410       O  0.66625184  0.14788199  0.91332599    -0.81400
O2411       O  0.71890776  0.07120429  0.86982951    -0.81480
O2412       O  0.73401740  0.13578472  0.87510575    -0.81410
O2413       O  0.68941667  0.07374358  0.93833643    -0.81390
O2414       O  0.66984670  0.03296227  0.90546544    -0.81440
O2415       O  0.70964009  0.16115563  0.86304646    -0.81410
O2416       O  0.68477207  0.12571363  0.94450862    -0.81370
O2417       O  0.73748116  0.09900185  0.82571769    -0.81440
Co2418     Co  0.66383564  0.12776594  0.86807676     1.51530
Co2419     Co  0.67092626  0.05482266  0.86553582     1.51690
Co2420     Co  0.70416888  0.09885887  0.84818903     1.51570
Co2421     Co  0.65603261  0.08281141  0.92886730     1.51470
O2422       O  0.67198181  0.09387382  0.88181894    -1.43330
C2423       C  0.67676635  0.14583907  0.94130075     1.08220
C2424       C  0.74112911  0.08480108  0.84911654     1.08310
C2425       C  0.73453989  0.16117154  0.87146237     1.08240
C2426       C  0.68294812  0.04622018  0.93260549     1.08220
O2427       O  0.53751473  0.10498312  0.66918079    -0.81400
O2428       O  0.61910407  0.20140316  0.54947774    -0.81420
O2429       O  0.53950127  0.17858075  0.59854675    -0.81430
O2430       O  0.62354392  0.13920131  0.62617378    -0.81370
O2431       O  0.56585217  0.15870887  0.57772106    -0.81500
O2432       O  0.57420135  0.12118860  0.61691470    -0.81410
O2433       O  0.64525499  0.18837838  0.58415500    -0.81400
O2434       O  0.52407373  0.13916059  0.65119943    -0.81440
C2435       C  0.51723345  0.11143941  0.65921967     1.08290
C2436       C  0.63960542  0.19362666  0.55426995     1.08180
C2437       C  0.54351210  0.16349526  0.57507152     1.08310
C2438       C  0.59724937  0.11702798  0.61678915     1.08190
O2439       O  0.60073620  0.13366175  0.68296127    -0.81400
O2440       O  0.58878778  0.22773411  0.58939439    -0.81480
O2441       O  0.56247453  0.19622798  0.69375832    -0.81410
O2442       O  0.66177756  0.22940073  0.64538006    -0.81390
O2443       O  0.64013892  0.23689574  0.60310276    -0.81440
O2444       O  0.56723779  0.15660730  0.70413840    -0.81410
O2445       O  0.63978414  0.18071331  0.68385333    -0.81370
O2446       O  0.58079644  0.23101645  0.64226717    -0.81440
Co2447     Co  0.57116301  0.14231627  0.65800592     1.51530
Co2448     Co  0.60379628  0.19606288  0.59321654     1.51690
Co2449     Co  0.55552015  0.18631119  0.64609677     1.51570
Co2450     Co  0.63917957  0.18474782  0.63563510     1.51470
O2451       O  0.59644346  0.18393191  0.63997789    -1.43330
C2452       C  0.62686380  0.15401860  0.69511718     1.08220
C2453       C  0.58732296  0.24331793  0.61466875     1.08310
C2454       C  0.56188010  0.17762371  0.71405747     1.08240
C2455       C  0.66071870  0.24733701  0.62520628     1.08220
O2456       O  0.90312319  0.43647710  0.60840918    -0.81400
O2457       O  0.84949691  0.45509999  0.56493449    -0.81420
O2458       O  0.83444406  0.35943995  0.57761956    -0.81430
O2459       O  0.88370468  0.48604663  0.63231117    -0.81370
O2460       O  0.85079106  0.40387606  0.55536647    -0.81500
O2461       O  0.91647255  0.47695702  0.66082908    -0.81410
O2462       O  0.83214183  0.47469535  0.60253326    -0.81400
O2463       O  0.88387248  0.38800004  0.62183732    -0.81440
C2464       C  0.90574900  0.41246165  0.60965302     1.08290
C2465       C  0.84366211  0.47590216  0.57421199     1.08180
C2466       C  0.84614756  0.37693940  0.55335372     1.08310
C2467       C  0.91047734  0.49535454  0.64603610     1.08190
O2468       O  0.85880395  0.45151731  0.68565518    -0.81400
O2469       O  0.78691448  0.36724421  0.57893887    -0.81480
O2470       O  0.83922854  0.38099521  0.67438405    -0.81410
O2471       O  0.79236584  0.42425508  0.64397308    -0.81390
O2472       O  0.78692395  0.42069976  0.58956699    -0.81440
O2473       O  0.88715696  0.41728072  0.67545428    -0.81410
O2474       O  0.83768968  0.47986471  0.67159771    -0.81370
O2475       O  0.79467016  0.35829275  0.62994399    -0.81440
Co2476     Co  0.87958646  0.44350287  0.64383390     1.51530
Co2477     Co  0.82016412  0.41201895  0.57421640     1.51690
Co2478     Co  0.83804053  0.37411803  0.62594841     1.51570
Co2479     Co  0.83789188  0.45135136  0.63964433     1.51470
O2480       O  0.84078949  0.41584229  0.61838917    -1.43330
C2481       C  0.84943482  0.47092796  0.69369653     1.08220
C2482       C  0.77665643  0.35349483  0.60597164     1.08310
C2483       C  0.86479353  0.39517037  0.68947101     1.08240
C2484       C  0.77644893  0.42136231  0.61807012     1.08220
C2485       C  0.98600766  0.08603158  0.65338802    -0.07390
C2486       C  0.97992928  0.06935229  0.62301054    -0.18510
C2487       C  0.95382308  0.04008293  0.61870027     0.09810
C2488       C  0.93384442  0.02767644  0.64552241    -0.07310
C2489       C  0.93865839  0.04537581  0.67489016    -0.18550
C2490       C  0.96467770  0.07458886  0.67909116     0.09840
S2491       S  0.94927556  0.01875646  0.58003463    -0.33510
S2492       S  0.97082428  0.09501709  0.71847040    -0.33520
H2493       H  0.98648808  0.12445463  0.70499387     0.27850
H2494       H  0.91708483  0.49911373  0.58122639     0.27850
H2495       H  0.99665536  0.07830963  0.60337646     0.18440
H2496       H  0.92289268  0.03574859  0.69524196     0.18450
C2497       C  0.74400178  0.33008338  0.61081245    -0.07390
C2498       C  0.73572540  0.31931237  0.64326357    -0.18510
C2499       C  0.70685975  0.29449687  0.64987373     0.09810
C2500       C  0.68571438  0.27942747  0.62347613    -0.07310
C2501       C  0.69223495  0.29243472  0.59199073    -0.18550
C2502       C  0.72131067  0.31725026  0.58520469     0.09840
S2503       S  0.69878757  0.28284363  0.69221367    -0.33510
S2504       S  0.72843571  0.32923035  0.54302744    -0.33520
H2505       H  0.75240758  0.32216758  0.53947565     0.27850
H2506       H  0.66665800  0.27132905  0.68912022     0.27850
H2507       H  0.75201280  0.32992044  0.66395708     0.18440
H2508       H  0.67575745  0.28136440  0.57152026     0.18450
C2509       C  0.64267106  0.14559390  0.72061964    -0.07390
C2510       C  0.62705955  0.11501340  0.73109544    -0.18510
C2511       C  0.64003812  0.10505837  0.75483412     0.09810
C2512       C  0.66937458  0.12595371  0.76925901    -0.07310
C2513       C  0.68615213  0.15587481  0.75746151    -0.18550
C2514       C  0.67308515  0.16609697  0.73362408     0.09840
S2515       S  0.61716842  0.06567508  0.76738577    -0.33510
S2516       S  0.69598374  0.20596142  0.72267973    -0.33520
H2517       H  0.67322136  0.21334079  0.73252329     0.27850
H2518       H  0.64271431  0.06108984  0.76770265     0.27850
H2519       H  0.60417513  0.09859085  0.72120222     0.18440
H2520       H  0.70833116  0.17224326  0.76900563     0.18450
C2521       C  0.65548525  0.18762094  0.52579175    -0.07390
C2522       C  0.66768105  0.16790196  0.53065310    -0.18510
C2523       C  0.67772062  0.15634169  0.50421303     0.09810
C2524       C  0.67496228  0.16379897  0.97114394    -0.07310
C2525       C  0.66530956  0.18572974  0.96666262    -0.18550
C2526       C  0.65628089  0.19811075  0.49345237     0.09840
S2527       S  0.69194656  0.13073187  0.51489680    -0.33510
S2528       S  0.64637383  0.22737943  0.98465700    -0.33520
H2529       H  0.65949888  0.24476445  0.51442568     0.27850
H2530       H  0.71862290  0.14598096  0.99567013     0.27850
H2531       H  0.66828470  0.16020031  0.55529418     0.18440
H2532       H  0.66394317  0.19277253  0.94190653     0.18450
C2533       C  0.66061720  0.49121592  0.51466976    -0.07390
C2534       C  0.68400769  0.02240688  0.51857363    -0.18510
C2535       C  0.69612570  0.04054456  0.49110606     0.09810
C2536       C  0.68353971  0.02746273  0.95941503    -0.07310
C2537       C  0.66395080  0.49530023  0.95536621    -0.18550
C2538       C  0.65244886  0.47702428  0.98261777     0.09840
S2539       S  0.72662489  0.08013536  0.49814425    -0.33510
S2540       S  0.62691681  0.43615792  0.97444676    -0.33520
H2541       H  0.63907443  0.42716892  0.50062086     0.27850
H2542       H  0.73980167  0.08241479  0.46679707     0.27850
H2543       H  0.69202416  0.03310389  0.54311372     0.18440
H2544       H  0.65538219  0.48450454  0.93096466     0.18450
C2545       C  0.63902474  0.47786631  0.72192705    -0.07390
C2546       C  0.66458097  0.00850930  0.72378555    -0.18510
C2547       C  0.67425650  0.02649629  0.75320072     0.09810
C2548       C  0.65905075  0.01368112  0.78268131    -0.07310
C2549       C  0.63526715  0.98231089  0.78194168    -0.18550
C2550       C  0.62503316  0.46433040  0.75195542     0.09840
S2551       S  0.70685217  0.06561615  0.75253768    -0.33510
S2552       S  0.59457324  0.42464783  0.75386111    -0.33520
H2553       H  0.60798369  0.41331766  0.73069648     0.27850
H2554       H  0.70856868  0.06815249  0.71791058     0.27850
H2555       H  0.67696866  0.01925214  0.70168448     0.18440
H2556       H  0.62422270  0.47186936  0.80479375     0.18450
C2557       C  0.60231346  0.03367467  0.62470659    -0.07390
C2558       C  0.60908532  0.04891570  0.59436717    -0.18510
C2559       C  0.60454604  0.07429945  0.58952138     0.09810
C2560       C  0.59313236  0.08525463  0.61542224    -0.07310
C2561       C  0.58449598  0.06892512  0.64484091    -0.18550
C2562       C  0.58945990  0.04397936  0.65006043     0.09840
S2563       S  0.61311608  0.09138410  0.54955517    -0.33510
S2564       S  0.58058231  0.02783830  0.69049901    -0.33520
H2565       H  0.60922172  0.02895045  0.69473465     0.27850
H2566       H  0.59517140  0.10592905  0.55271652     0.27850
H2567       H  0.61791526  0.04097356  0.57407356     0.18440
H2568       H  0.57560655  0.07691129  0.66498992     0.18450
C2569       C  0.59250998  0.27560392  0.61376877    -0.07390
C2570       C  0.60489100  0.29534940  0.64255854    -0.18510
C2571       C  0.60750047  0.32492593  0.64531142     0.09810
C2572       C  0.59767607  0.33564657  0.61842156    -0.07310
C2573       C  0.58524988  0.31560439  0.58983046    -0.18550
C2574       C  0.58239600  0.28615506  0.58728067     0.09840
S2575       S  0.62300647  0.34681127  0.68395553    -0.33510
S2576       S  0.56352447  0.26243954  0.55050214    -0.33520
H2577       H  0.54426249  0.23558741  0.56774813     0.27850
H2578       H  0.63396494  0.37649501  0.67207239     0.27850
H2579       H  0.61244376  0.28750240  0.66348409     0.18440
H2580       H  0.57621909  0.32229321  0.56932981     0.18450
C2581       C  0.69734666  0.43383424  0.60870984    -0.07390
C2582       C  0.69428056  0.40830794  0.62557749    -0.18510
C2583       C  0.71985759  0.40422188  0.63139770     0.09810
C2584       C  0.74912800  0.42576677  0.61913650    -0.07310
C2585       C  0.75198184  0.45141966  0.60253455    -0.18550
C2586       C  0.72668660  0.45579107  0.59746365     0.09840
S2587       S  0.71286667  0.37056411  0.65328511    -0.33510
S2588       S  0.73306694  0.48936283  0.57558277    -0.33520
H2589       H  0.71499115  0.49662729  0.59672761     0.27850
H2590       H  0.74323262  0.38220882  0.66541574     0.27850
H2591       H  0.67171366  0.39126704  0.63401551     0.18440
H2592       H  0.77427730  0.46830413  0.59318607     0.18450
C2593       C  0.93597108  0.41431221  0.60081230    -0.07390
C2594       C  0.96259796  0.44373050  0.59864934    -0.18510
C2595       C  0.99255317  0.44754646  0.59774615     0.09810
C2596       C  0.99671367  0.42140095  0.59888421    -0.07310
C2597       C  0.96990158  0.39187856  0.59806461    -0.18550
C2598       C  0.93994584  0.38803250  0.59839599     0.09840
S2599       S  0.52437802  0.48664222  0.59776393    -0.33510
S2600       S  0.90795193  0.34884089  0.59603983    -0.33520
H2601       H  0.89018836  0.35565798  0.57436532     0.27850
H2602       H  0.53274580  0.48551719  0.63079771     0.27850
H2603       H  0.96036576  0.46429266  0.59975569     0.18440
H2604       H  0.97216490  0.37138288  0.59849794     0.18450
C2605       C  0.99304221  0.14978661  0.98263502    -0.07390
C2606       C  0.51934265  0.14642389  0.98337135    -0.18510
C2607       C  0.53517736  0.14882384  0.51301414     0.09810
C2608       C  0.52537463  0.15641741  0.54319552    -0.07310
C2609       C  0.49949009  0.16092954  0.54209001    -0.18550
C2610       C  0.98334862  0.15777105  0.51223621     0.09840
S2611       S  0.56726426  0.14136864  0.01097229    -0.33510
S2612       S  0.95171185  0.16569811  0.51324758    -0.33520
H2613       H  0.95306233  0.17335340  0.97984181     0.27850
H2614       H  0.56852610  0.13886805  0.47625641     0.27850
H2615       H  0.52674740  0.14044021  0.96045411     0.18440
H2616       H  0.99197592  0.16746824  0.56458257     0.18450
C2617       C  0.00645342  0.15480068  0.80085947    -0.07390
C2618       C  0.53603872  0.15764590  0.80330156    -0.18510
C2619       C  0.55642112  0.16737264  0.77634585     0.09810
C2620       C  0.54784528  0.17612831  0.74695661    -0.07310
C2621       C  0.01973871  0.17624966  0.74609517    -0.18550
C2622       C  0.99825697  0.16392981  0.77131238     0.09840
S2623       S  0.59253304  0.16747739  0.78052862    -0.33510
S2624       S  0.96008368  0.15775495  0.76105768    -0.33520
H2625       H  0.94345487  0.14069048  0.78778643     0.27850
H2626       H  0.60806077  0.18880875  0.75580077     0.27850
H2627       H  0.54251390  0.15037145  0.82548191     0.18440
H2628       H  0.01251226  0.18227166  0.72347613     0.18450
C2629       C  0.85025404  0.50045056  0.55095362    -0.07390
C2630       C  0.87770035  0.02885303  0.55581888    -0.18510
C2631       C  0.89158366  0.04828016  0.52929414     0.09810
C2632       C  0.87751226  0.03938896  0.99725945    -0.07310
C2633       C  0.84848433  0.51250234  0.99332958    -0.18550
C2634       C  0.83501036  0.49279032  0.01956989     0.09840
S2635       S  0.92804878  0.08310990  0.53751127    -0.33510
S2636       S  0.80023275  0.45635326  0.01040318    -0.33520
H2637       H  0.78811422  0.45431502  0.54209636     0.27850
H2638       H  0.92438710  0.09905328  0.51146955     0.27850
H2639       H  0.88979313  0.03467215  0.57963710     0.18440
H2640       H  0.83755880  0.50524205  0.96890052     0.18450
C2641       C  0.86479300  0.01616886  0.79013134    -0.07390
C2642       C  0.88381269  0.00452441  0.77920703    -0.18510
C2643       C  0.87847321  0.98838889  0.74890886     0.09810
C2644       C  0.85291963  0.48301006  0.72850693    -0.07310
C2645       C  0.83250802  0.99283993  0.74048002    -0.18550
C2646       C  0.83834532  0.00963720  0.77088807     0.09840
S2647       S  0.90798618  0.47959221  0.73636040    -0.33510
S2648       S  0.81288157  0.02426284  0.78222116    -0.33520
H2649       H  0.83675380  0.05408870  0.79196454     0.27850
H2650       H  0.88788923  0.44760750  0.73707166     0.27850
H2651       H  0.90435419  0.00974078  0.79370845     0.18440
H2652       H  0.81281809  0.48891596  0.72524437     0.18450
C2653       C  0.51857973  0.08637249  0.90452794    -0.07390
C2654       C  0.53370062  0.09222942  0.87426657    -0.18510
C2655       C  0.56031592  0.09031017  0.87035710     0.09810
C2656       C  0.57392935  0.08461623  0.89831448    -0.07310
C2657       C  0.55729993  0.07583574  0.92774195    -0.18550
C2658       C  0.52932144  0.07576717  0.93090459     0.09840
S2659       S  0.57503051  0.09561978  0.82877671    -0.33510
S2660       S  0.50847858  0.06071500  0.96852116    -0.33520
H2661       H  0.50748864  0.08752279  0.97771751     0.27850
H2662       H  0.57859652  0.06931073  0.82882446     0.27850
H2663       H  0.52458509  0.09818599  0.85306410     0.18440
H2664       H  0.56643242  0.06963517  0.94871936     0.18450
C2665       C  0.83192671  0.09511853  0.86210929    -0.07390
C2666       C  0.80747194  0.07472825  0.88185022    -0.18510
C2667       C  0.77747521  0.06988483  0.87761395     0.09810
C2668       C  0.77168760  0.08680172  0.85388341    -0.07310
C2669       C  0.79649102  0.10776214  0.83471506    -0.18550
C2670       C  0.82628981  0.11208099  0.83854001     0.09840
S2671       S  0.74775862  0.04050462  0.90202396    -0.33510
S2672       S  0.85613172  0.14013781  0.81312651    -0.33520
H2673       H  0.87922430  0.15067631  0.83799771     0.27850
H2674       H  0.72737823  0.02570115  0.87472548     0.27850
H2675       H  0.81131110  0.06100074  0.89952891     0.18440
H2676       H  0.79288898  0.12135536  0.81668128     0.18450
C2677       C  0.98870250  0.33746855  0.97714749    -0.07390
C2678       C  0.51935715  0.34392237  0.97539568    -0.18510
C2679       C  0.53772279  0.35081353  0.00405891     0.09810
C2680       C  0.52547451  0.35172394  0.53554805    -0.07310
C2681       C  0.49382070  0.34145442  0.53769443    -0.18550
C2682       C  0.97515635  0.33413960  0.50886669     0.09840
S2683       S  0.57734500  0.36036362  0.99816532    -0.33510
S2684       S  0.93438299  0.32125965  0.51329811    -0.33520
H2685       H  0.93335589  0.31737870  0.04771222     0.27850
H2686       H  0.58324500  0.35624336  0.53077900     0.27850
H2687       H  0.52967747  0.34532447  0.95144095     0.18440
H2688       H  0.98432548  0.34163220  0.56170850     0.18450
C2689       C  0.51577774  0.38937065  0.71677134    -0.07390
C2690       C  0.00332057  0.35848266  0.72613520    -0.18510
C2691       C  0.98813310  0.34835935  0.75628036     0.09810
C2692       C  0.98516574  0.36957979  0.77817084    -0.07310
C2693       C  0.49686665  0.40015352  0.76828647    -0.18550
C2694       C  0.51235172  0.41038831  0.73862097     0.09840
S2695       S  0.97378320  0.30830640  0.76513842    -0.33510
S2696       S  0.52813086  0.45108979  0.73174437    -0.33520
H2697       H  0.55897815  0.45725119  0.73171595     0.27850
H2698       H  0.94349814  0.30222783  0.77132848     0.27850
H2699       H  0.00568256  0.34197035  0.71002221     0.18440
H2700       H  0.49485885  0.41691935  0.78434969     0.18450
C2701       C  0.90659176  0.48616151  0.88796551    -0.07390
C2702       C  0.93447208  0.48783274  0.89846613    -0.18510
C2703       C  0.93928839  0.46278270  0.89439383     0.09810
C2704       C  0.91616055  0.43520063  0.87886717    -0.07310
C2705       C  0.88782390  0.43260004  0.86941946    -0.18550
C2706       C  0.88278697  0.45778403  0.87355343     0.09840
S2707       S  0.97496294  0.46696788  0.91070505    -0.33510
S2708       S  0.84599411  0.45202664  0.85914736    -0.33520
H2709       H  0.85944820  0.97872976  0.84066359     0.27850
H2710       H  0.96020841  0.43773477  0.92485501     0.27850
H2711       H  0.95288316  0.50879628  0.91045787     0.18440
H2712       H  0.86999019  0.41121187  0.85748469     0.18450
C2713       C  0.92600712  0.24014579  0.88696880    -0.07390
C2714       C  0.93881075  0.23450990  0.85845400    -0.18510
C2715       C  0.94233162  0.20872466  0.85491923     0.09810
C2716       C  0.93065939  0.18609346  0.87914288    -0.07310
C2717       C  0.91699486  0.19095038  0.90741448    -0.18550
C2718       C  0.91506112  0.21795320  0.91193025     0.09840
S2719       S  0.96500594  0.20835512  0.82052066    -0.33510
S2720       S  0.89851684  0.22244065  0.94987352    -0.33520
H2721       H  0.92675846  0.24785809  0.96153080     0.27850
H2722       H  0.98340845  0.20046009  0.83976752     0.27850
H2723       H  0.94809127  0.25130603  0.83924663     0.18440
H2724       H  0.90807470  0.17378129  0.92627416     0.18450
C2725       C  0.58014189  0.49291489  0.89055301    -0.07390
C2726       C  0.56709066  0.47973753  0.92111398    -0.18510
C2727       C  0.54100567  0.44969033  0.92281431     0.09810
C2728       C  0.52753205  0.43149531  0.89341063    -0.07310
C2729       C  0.54010874  0.44466094  0.86300712    -0.18550
C2730       C  0.56517149  0.47504602  0.86113027     0.09840
S2731       S  0.52656615  0.43570520  0.96327078    -0.33510
S2732       S  0.57548978  0.48969642  0.82014515    -0.33520
H2733       H  0.57711275  0.01807869  0.82881200     0.27850
H2734       H  0.01405779  0.40408540  0.95468591     0.27850
H2735       H  0.57758264  0.49268491  0.94412891     0.18440
H2736       H  0.52945246  0.43150073  0.84014059     0.18450
C2737       C  0.82675048  0.24338126  0.87319604    -0.07390
C2738       C  0.81695260  0.22256211  0.89928653    -0.18510
C2739       C  0.78692807  0.19667063  0.90000397     0.09810
C2740       C  0.76525610  0.19059208  0.87403513    -0.07310
C2741       C  0.77481357  0.21107921  0.84779438    -0.18550
C2742       C  0.80512822  0.23682615  0.84676510     0.09840
S2743       S  0.77734577  0.17285587  0.93559528    -0.33510
S2744       S  0.81435281  0.26035499  0.81108831    -0.33520
H2745       H  0.84071852  0.25792922  0.80373101     0.27850
H2746       H  0.74623926  0.16566008  0.93636892     0.27850
H2747       H  0.83266688  0.22679718  0.91997894     0.18440
H2748       H  0.75884331  0.20635839  0.82721203     0.18450
C2749       C  0.85780964  0.34742342  0.95649702    -0.07390
C2750       C  0.87382848  0.37874608  0.96630031    -0.18510
C2751       C  0.87249668  0.38829400  0.49857598     0.09810
C2752       C  0.85199540  0.36640625  0.52110352    -0.07310
C2753       C  0.83403245  0.33516653  0.51045968    -0.18550
C2754       C  0.83742863  0.32538605  0.97857687     0.09840
S2755       S  0.90003644  0.42828967  0.50977177    -0.33510
S2756       S  0.81686351  0.28455789  0.96781945    -0.33520
H2757       H  0.84410532  0.28343657  0.96190743     0.27850
H2758       H  0.90786819  0.42145009  0.54055737     0.27850
H2759       H  0.89060120  0.39548153  0.94984434     0.18440
H2760       H  0.81782651  0.31830613  0.52712850     0.18450
C2761       C  0.86855441  0.38399543  0.72161086    -0.07390
C2762       C  0.88787615  0.37108661  0.72317700    -0.18510
C2763       C  0.89056593  0.35780582  0.75212319     0.09810
C2764       C  0.87525165  0.35914647  0.78109062    -0.07310
C2765       C  0.85548067  0.37163288  0.77933806    -0.18550
C2766       C  0.85136959  0.38331184  0.74979439     0.09840
S2767       S  0.91209512  0.33762178  0.74966840    -0.33510
S2768       S  0.82574754  0.39916315  0.75047096    -0.33520
H2769       H  0.80922941  0.38328287  0.72133755     0.27850
H2770       H  0.89514657  0.31609679  0.77376841     0.27850
H2771       H  0.89997299  0.37018908  0.70122819     0.18560
H2772       H  0.84374086  0.37304317  0.80134937     0.18450
O2773       O  0.94576237  0.91557553  0.35350087    -0.81400
O2774       O  0.95092574  0.84258051  0.44719524    -0.81420
O2775       O  0.86131115  0.82793491  0.40246883    -0.81430
O2776       O  0.99980548  0.87725492  0.37774052    -0.81370
O2777       O  0.89975377  0.84443184  0.43780372    -0.81500
O2778       O  0.97298947  0.89744425  0.39932138    -0.81410
O2779       O  0.97784317  0.82685354  0.41834840    -0.81400
O2780       O  0.90318577  0.88221790  0.37917802    -0.81440
C2781       C  0.92201509  0.90994418  0.36987421     1.08290
C2782       C  0.97195541  0.83579701  0.44595760     1.08180
C2783       C  0.87297164  0.83898023  0.43091560     1.08310
C2784       C  0.99899017  0.90008877  0.39219069     1.08190
O2785       O  0.97183985  0.88343627  0.32994138    -0.81400
O2786       O  0.86922478  0.78178321  0.40667306    -0.81480
O2787       O  0.86199342  0.83950514  0.33568816    -0.81410
O2788       O  0.93662545  0.78756745  0.36520437    -0.81390
O2789       O  0.92238213  0.78055737  0.41709585    -0.81440
O2790       O  0.91127156  0.86008336  0.32126432    -0.81410
O2791       O  0.96052362  0.83554104  0.32328991    -0.81370
O2792       O  0.87050074  0.79097398  0.35354529    -0.81440
Co2793     Co  0.94044868  0.87679225  0.36393386     1.51530
Co2794     Co  0.91161010  0.81409245  0.42515149     1.51690
Co2795     Co  0.89036589  0.83621891  0.36443883     1.51570
Co2796     Co  0.96611613  0.83174491  0.37132452     1.51470
O2797       O  0.92829912  0.83606930  0.38265907    -1.43330
C2798       C  0.97153576  0.86212419  0.31179658     1.08220
C2799       C  0.85753892  0.77311979  0.37738082     1.08310
C2800       C  0.88277424  0.85211440  0.31410220     1.08240
C2801       C  0.92738257  0.77050269  0.38985567     1.08220
O2802       O  0.96088677  0.61173971  0.31946043    -0.81400
O2803       O  0.92823347  0.53871918  0.40341268    -0.81420
O2804       O  0.48663344  0.60540838  0.38437699    -0.81430
O2805       O  0.86202666  0.53995906  0.34237576    -0.81370
O2806       O  0.97429522  0.58303659  0.43044229    -0.81500
O2807       O  0.90523223  0.56095662  0.31450517    -0.81410
O2808       O  0.87987154  0.51551432  0.38960534    -0.81400
O2809       O  0.98419835  0.65043141  0.35514137    -0.81440
C2810       C  0.98326657  0.63829101  0.32664981     1.08290
C2811       C  0.90437263  0.51461723  0.39360682     1.08180
C2812       C  0.49214495  0.59175568  0.40669342     1.08310
C2813       C  0.87768623  0.53983201  0.31745398     1.08190
O2814       O  0.87551074  0.59505742  0.33784620    -0.81400
O2815       O  0.94702424  0.61900677  0.44832546    -0.81480
O2816       O  0.93583456  0.64509672  0.40023856    -0.81410
O2817       O  0.88071035  0.55798334  0.44224072    -0.81390
O2818       O  0.92213374  0.55855972  0.46433641    -0.81440
O2819       O  0.93175799  0.64616754  0.34650625    -0.81410
O2820       O  0.86955630  0.58906149  0.39123511    -0.81370
O2821       O  0.99039176  0.65286482  0.42445315    -0.81440
Co2822     Co  0.91888702  0.60232576  0.33235850     1.51530
Co2823     Co  0.93271762  0.57698904  0.42303080     1.51690
Co2824     Co  0.96018888  0.62405054  0.39361581     1.51570
Co2825     Co  0.87748134  0.55430854  0.39036433     1.51470
O2826       O  0.92405387  0.58642196  0.37686249    -1.43330
C2827       C  0.86131119  0.59465291  0.36407945     1.08220
C2828       C  0.97562431  0.64143614  0.45074145     1.08310
C2829       C  0.93230144  0.65747713  0.37524231     1.08240
C2830       C  0.89453961  0.55306793  0.46669773     1.08220
O2831       O  0.52908481  0.90046224  0.11430983    -0.81400
O2832       O  0.65981669  0.98304487  0.07153161    -0.81420
O2833       O  0.59335110  0.98654786  0.14999018    -0.81430
O2834       O  0.56625037  0.89910238  0.05475066    -0.81370
O2835       O  0.62554268  0.00310209  0.10833296    -0.81500
O2836       O  0.54520272  0.86438354  0.09274451    -0.81410
O2837       O  0.61832031  0.95176115  0.04234528    -0.81400
O2838       O  0.55210655  0.94817530  0.10971998    -0.81440
C2839       C  0.52739575  0.92359859  0.10627536     1.08290
C2840       C  0.64523966  0.97461283  0.04423550     1.08180
C2841       C  0.60746736  0.00655349  0.12808913     1.08310
C2842       C  0.54643222  0.87217830  0.06260385     1.08190
O2843       O  0.59439543  0.88055865  0.14125150    -0.81400
O2844       O  0.64133143  0.98215122  0.16469985    -0.81480
O2845       O  0.54498091  0.92738403  0.17657225    -0.81410
O2846       O  0.65477866  0.92939736  0.07688565    -0.81390
O2847       O  0.66424570  0.95206368  0.12698374    -0.81440
O2848       O  0.53947620  0.88003111  0.16851835    -0.81410
O2849       O  0.60174414  0.87668047  0.08800360    -0.81370
O2850       O  0.60307656  0.93893482  0.18005248    -0.81440
Co2851     Co  0.56680531  0.89775712  0.12973492     1.51530
Co2852     Co  0.64436833  0.97668997  0.11732157     1.51690
Co2853     Co  0.57705571  0.94070784  0.14266504     1.51570
Co2854     Co  0.60953963  0.91560989  0.06756278     1.51470
O2855       O  0.60278507  0.93674542  0.10749673    -1.43330
C2856       C  0.59935416  0.86663647  0.11688700     1.08220
C2857       C  0.62730268  0.96439440  0.18753683     1.08310
C2858       C  0.53378182  0.89919538  0.18567383     1.08240
C2859       C  0.67019531  0.93789921  0.10422198     1.08220
O2860       O  0.65609157  0.61041820  0.32292702    -0.81400
O2861       O  0.62484739  0.53399778  0.36402570    -0.81420
O2862       O  0.67570952  0.56153620  0.31497809    -0.81430
O2863       O  0.62001248  0.59049042  0.42458080    -0.81370
O2864       O  0.66828611  0.52025820  0.34103636    -0.81500
O2865       O  0.62032244  0.59872145  0.37164308    -0.81410
O2866       O  0.62299547  0.53772357  0.41827370    -0.81400
O2867       O  0.70344248  0.62549297  0.31187958    -0.81440
C2868       C  0.67707871  0.62014640  0.30239175     1.08290
C2869       C  0.61034446  0.52353599  0.39067203     1.08180
C2870       C  0.66832822  0.53256042  0.31422518     1.08310
C2871       C  0.60615009  0.59077102  0.39819780     1.08190
O2872       O  0.66625323  0.64788417  0.41332640    -0.81400
O2873       O  0.71890800  0.57120555  0.36982926    -0.81480
O2874       O  0.73401864  0.63578669  0.37510506    -0.81410
O2875       O  0.68941753  0.57374515  0.43833629    -0.81390
O2876       O  0.66984707  0.53296381  0.40546541    -0.81440
O2877       O  0.70964137  0.66115774  0.36304628    -0.81410
O2878       O  0.68477341  0.62571537  0.44450834    -0.81370
O2879       O  0.73748146  0.59900297  0.32571730    -0.81440
Co2880     Co  0.66383679  0.62776827  0.36807697     1.51530
Co2881     Co  0.67092667  0.55482431  0.36553579     1.51690
Co2882     Co  0.70416956  0.59886046  0.34818884     1.51570
Co2883     Co  0.65603362  0.58281325  0.42886727     1.51470
O2884       O  0.67198264  0.59387571  0.38181885    -1.43330
C2885       C  0.67676755  0.64584075  0.44130104     1.08220
C2886       C  0.74112920  0.58480202  0.34911610     1.08310
C2887       C  0.73454127  0.66117362  0.37146166     1.08240
C2888       C  0.68294860  0.54622163  0.43260544     1.08220
O2889       O  0.53751518  0.60498288  0.16918022    -0.81400
O2890       O  0.61910395  0.70140260  0.04947729    -0.81420
O2891       O  0.53950151  0.67858044  0.09854708    -0.81430
O2892       O  0.62354443  0.63920148  0.12617350    -0.81370
O2893       O  0.56585236  0.65870845  0.07772148    -0.81500
O2894       O  0.57420190  0.62118878  0.11691423    -0.81410
O2895       O  0.64525528  0.68837828  0.08415447    -0.81400
O2896       O  0.52407403  0.63916047  0.15119967    -0.81440
C2897       C  0.51723379  0.61143921  0.15921957     1.08290
C2898       C  0.63960544  0.69362627  0.05426940     1.08180
C2899       C  0.54351227  0.66349479  0.07507201     1.08310
C2900       C  0.59724990  0.61702817  0.11678878     1.08190
O2901       O  0.60073670  0.63366200  0.18296086    -0.81400
O2902       O  0.58878772  0.72773370  0.08939412    -0.81480
O2903       O  0.56247543  0.69622813  0.19375836    -0.81410
O2904       O  0.66177777  0.72940096  0.14537942    -0.81390
O2905       O  0.64013891  0.73689555  0.10310204    -0.81440
O2906       O  0.56723788  0.65660692  0.20413803    -0.81410
O2907       O  0.63978449  0.68071369  0.18385284    -0.81370
O2908       O  0.58079681  0.73101634  0.14226699    -0.81440
Co2909     Co  0.57116334  0.64231620  0.15800547     1.51530
Co2910     Co  0.60379642  0.69606260  0.09321627     1.51690
Co2911     Co  0.55552055  0.68631113  0.14609689     1.51570
Co2912     Co  0.63917996  0.68474800  0.13563464     1.51470
O2913       O  0.59644381  0.68393190  0.13997765    -1.43330
C2914       C  0.62686423  0.65401902  0.19511677     1.08220
C2915       C  0.58732299  0.74331763  0.11466844     1.08310
C2916       C  0.56188065  0.67762358  0.21405732     1.08240
C2917       C  0.66071865  0.74733707  0.12520558     1.08220
O2918       O  0.90312279  0.93647539  0.10840770    -0.81400
O2919       O  0.84949704  0.95509946  0.06493355    -0.81420
O2920       O  0.83444302  0.85943888  0.07761833    -0.81430
O2921       O  0.88370421  0.98604546  0.13231061    -0.81370
O2922       O  0.85079036  0.90387499  0.05536503    -0.81500
O2923       O  0.91647260  0.97695567  0.16082736    -0.81410
O2924       O  0.83214220  0.97469507  0.10253243    -0.81400
O2925       O  0.88387152  0.88799832  0.12183607    -0.81440
C2926       C  0.90574831  0.91245976  0.10965185     1.08290
C2927       C  0.84366256  0.97590185  0.07421116     1.08180
C2928       C  0.84614675  0.87693827  0.05335247     1.08310
C2929       C  0.91047703  0.99535321  0.14603497     1.08190
O2930       O  0.85880421  0.95151627  0.18565404    -0.81400
O2931       O  0.78691388  0.86724393  0.07893778    -0.81480
O2932       O  0.83922818  0.88099411  0.17438309    -0.81410
O2933       O  0.79236521  0.92425456  0.14397182    -0.81390
O2934       O  0.78692388  0.92069983  0.08956573    -0.81440
O2935       O  0.88715670  0.91727949  0.17545277    -0.81410
O2936       O  0.83768954  0.97986360  0.17159767    -0.81370
O2937       O  0.79466952  0.85829235  0.12994292    -0.81440
Co2938     Co  0.87958633  0.94350168  0.14383244     1.51530
Co2939     Co  0.82016382  0.91201848  0.07421525     1.51690
Co2940     Co  0.83803974  0.87411698  0.12594726     1.51570
Co2941     Co  0.83789144  0.95135044  0.13964354     1.51470
O2942       O  0.84078909  0.91584145  0.11838805    -1.43330
C2943       C  0.84943499  0.97092672  0.19369606     1.08220
C2944       C  0.77665579  0.85349474  0.10597064     1.08310
C2945       C  0.86479332  0.89516940  0.18946984     1.08240
C2946       C  0.77644856  0.92136220  0.11806875     1.08220
C2947       C  0.98601070  0.58602692  0.15341564    -0.07390
C2948       C  0.97993522  0.56935240  0.12303544    -0.18510
C2949       C  0.95382811  0.54008492  0.11871878     0.09810
C2950       C  0.93384556  0.52767557  0.14553715    -0.07310
C2951       C  0.93865681  0.54537056  0.17490780    -0.18550
C2952       C  0.96467738  0.57458191  0.17911542     0.09840
S2953       S  0.94928347  0.51876396  0.08004997    -0.33510
S2954       S  0.97081982  0.59500492  0.21849749    -0.33520
H2955       H  0.98649141  0.62444489  0.20502746     0.27850
H2956       H  0.91708384  0.99911185  0.08122519     0.27850
H2957       H  0.99666363  0.57831222  0.10340372     0.18440
H2958       H  0.92288787  0.53574105  0.19525656     0.18450
C2959       C  0.74400107  0.83008373  0.11081162    -0.07390
C2960       C  0.73572469  0.81931299  0.14326284    -0.18510
C2961       C  0.70685917  0.79449736  0.14987303     0.09810
C2962       C  0.68571394  0.77942766  0.12347541    -0.07310
C2963       C  0.69223435  0.79243484  0.09198997    -0.18550
C2964       C  0.72130997  0.81725048  0.08520387     0.09840
S2965       S  0.69878702  0.78284424  0.19221302    -0.33510
S2966       S  0.72843495  0.82923042  0.04302657    -0.33520
H2967       H  0.75240654  0.82216725  0.03947470     0.27850
H2968       H  0.66665737  0.77132912  0.18911940     0.27850
H2969       H  0.75201207  0.82992126  0.16395634     0.18440
H2970       H  0.67575688  0.78136434  0.07151950     0.18450
C2971       C  0.64267155  0.64559455  0.22061930    -0.07390
C2972       C  0.62706019  0.61501408  0.23109517    -0.18510
C2973       C  0.64003884  0.60505931  0.25483401     0.09810
C2974       C  0.66937524  0.62595487  0.26925884    -0.07310
C2975       C  0.68615266  0.65587591  0.25746122    -0.18550
C2976       C  0.67308556  0.66609786  0.23362375     0.09840
S2977       S  0.61716935  0.56567611  0.26738593    -0.33510
S2978       S  0.69598386  0.70596237  0.22267949    -0.33520
H2979       H  0.67322122  0.71334140  0.23252295     0.27850
H2980       H  0.64271526  0.56109093  0.26770203     0.27850
H2981       H  0.60417582  0.59859138  0.22120194     0.18440
H2982       H  0.70833162  0.67224451  0.26900537     0.18450
C2983       C  0.65548514  0.68762037  0.02579109    -0.07390
C2984       C  0.66768146  0.66790184  0.03065264    -0.18510
C2985       C  0.67772104  0.65634145  0.00421267     0.09810
C2986       C  0.67496311  0.66379987  0.47114473    -0.07310
C2987       C  0.66531138  0.68573146  0.46666400    -0.18550
C2988       C  0.65628019  0.69810953  0.99345148     0.09840
S2989       S  0.69194769  0.63073229  0.01489679    -0.33510
S2990       S  0.64637695  0.72738194  0.48465951    -0.33520
H2991       H  0.65949776  0.74476326  0.01442396     0.27850
H2992       H  0.71862164  0.64597902  0.49567175     0.27850
H2993       H  0.66828554  0.66020065  0.05529384     0.18440
H2994       H  0.66394584  0.69277520  0.44190815     0.18450
C2995       C  0.66061631  0.99121472  0.01466964    -0.07390
C2996       C  0.68400790  0.52240699  0.01857443    -0.18510
C2997       C  0.69612671  0.54054461  0.99110695     0.09810
C2998       C  0.68353990  0.52746404  0.45941504    -0.07310
C2999       C  0.66394962  0.99530005  0.45536556    -0.18550
C3000       C  0.65244860  0.97702402  0.48261721     0.09840
S3001       S  0.72662609  0.58013528  0.99814545    -0.33510
S3002       S  0.62691727  0.93615750  0.47444640    -0.33520
H3003       H  0.63907359  0.92716766  0.00062144     0.27850
H3004       H  0.73980348  0.58241449  0.96679866     0.27850
H3005       H  0.69202404  0.53310397  0.04311458     0.18440
H3006       H  0.65538067  0.98450433  0.43096410     0.18450
C3007       C  0.63902184  0.97786603  0.22192653    -0.07390
C3008       C  0.66458092  0.50850994  0.22378576    -0.18510
C3009       C  0.67425652  0.52649713  0.25320081     0.09810
C3010       C  0.65905082  0.51368219  0.28268149    -0.07310
C3011       C  0.63526730  0.48231190  0.28194207    -0.18550
C3012       C  0.62503032  0.96432993  0.25195485     0.09840
S3013       S  0.70685225  0.56561692  0.25253752    -0.33510
S3014       S  0.59457142  0.92464690  0.25386050    -0.33520
H3015       H  0.60798259  0.91331752  0.23069588     0.27850
H3016       H  0.70856880  0.56815300  0.21791039     0.27850
H3017       H  0.67696856  0.51925263  0.20168462     0.18440
H3018       H  0.62421927  0.97186875  0.30479311     0.18450
C3019       C  0.60231334  0.53367463  0.12470659    -0.07390
C3020       C  0.60908544  0.54891565  0.09436715    -0.18510
C3021       C  0.60454646  0.57429954  0.08952125     0.09810
C3022       C  0.59313279  0.58525483  0.11542200    -0.07310
C3023       C  0.58449615  0.56892533  0.14484067    -0.18550
C3024       C  0.58945983  0.54397945  0.15006033     0.09840
S3025       S  0.61311691  0.59138425  0.04955508    -0.33510
S3026       S  0.58058210  0.52783850  0.19049896    -0.33520
H3027       H  0.60922140  0.52895047  0.19473471     0.27850
H3028       H  0.59517246  0.60592945  0.05271622     0.27850
H3029       H  0.61791539  0.54097341  0.07407363     0.18440
H3030       H  0.57560672  0.57691160  0.16498960     0.18450
C3031       C  0.59250968  0.77560348  0.11376829    -0.07390
C3032       C  0.60489037  0.79534902  0.14255807    -0.18510
C3033       C  0.60749945  0.82492537  0.14531081     0.09810
C3034       C  0.59767506  0.83564582  0.11842076    -0.07310
C3035       C  0.58524933  0.81560364  0.08982959    -0.18550
C3036       C  0.58239574  0.78615444  0.08727998     0.09840
S3037       S  0.62300490  0.84681068  0.18395505    -0.33510
S3038       S  0.56352457  0.76243880  0.05050142    -0.33520
H3039       H  0.54426247  0.73558673  0.06774743     0.27850
H3040       H  0.63396320  0.87649442  0.17207201     0.27850
H3041       H  0.61244313  0.78750217  0.16348375     0.18440
H3042       H  0.57621864  0.82229232  0.06932874     0.18450
C3043       C  0.69734541  0.93383348  0.10870940    -0.07390
C3044       C  0.69428013  0.90830805  0.12557818    -0.18510
C3045       C  0.71985740  0.90422218  0.13139785     0.09810
C3046       C  0.74912733  0.92576639  0.11913498    -0.07310
C3047       C  0.75198038  0.95141845  0.10253185    -0.18550
C3048       C  0.72668491  0.95578967  0.09746150     0.09840
S3049       S  0.71286718  0.87056528  0.15328658    -0.33510
S3050       S  0.73306442  0.98936059  0.07557951    -0.33520
H3051       H  0.71498973  0.99662594  0.09672509     0.27850
H3052       H  0.74323330  0.88221054  0.16541687     0.27850
H3053       H  0.67171356  0.89126753  0.13401752     0.18440
H3054       H  0.77427550  0.96830255  0.09318226     0.18450
C3055       C  0.93597032  0.91430986  0.10081169    -0.07390
C3056       C  0.96259758  0.94372796  0.09864940    -0.18510
C3057       C  0.99255261  0.94754341  0.09774681     0.09810
C3058       C  0.99671253  0.92139751  0.09888457    -0.07310
C3059       C  0.96990012  0.89187535  0.09806446    -0.18550
C3060       C  0.93994458  0.88802983  0.09839543     0.09840
S3061       S  0.52437207  0.98663865  0.09776900    -0.33510
S3062       S  0.90795026  0.84883843  0.09603878    -0.33520
H3063       H  0.89018717  0.85565608  0.07436418     0.27850
H3064       H  0.53274218  0.98551210  0.13080141     0.27850
H3065       H  0.96036578  0.96429035  0.09975586     0.18440
H3066       H  0.97216305  0.87137942  0.09849756     0.18450
C3067       C  0.99304059  0.64978598  0.48263910    -0.07390
C3068       C  0.51934402  0.64642563  0.48337160    -0.18510
C3069       C  0.53517786  0.64882347  0.01301485     0.09810
C3070       C  0.52537494  0.65641695  0.04319612    -0.07310
C3071       C  0.49949051  0.66092923  0.04209059    -0.18550
C3072       C  0.98335620  0.65776933  0.01223652     0.09840
S3073       S  0.56726572  0.64137064  0.51097266    -0.33510
S3074       S  0.95175134  0.66574477  0.01322217    -0.33520
H3075       H  0.95305910  0.67335089  0.47984645     0.27850
H3076       H  0.56852701  0.63886816  0.97625722     0.27850
H3077       H  0.52674896  0.64044212  0.46045437     0.18440
H3078       H  0.99199140  0.66750351  0.06457726     0.18450
C3079       C  0.00645614  0.65480322  0.30086824    -0.07390
C3080       C  0.53603897  0.65764524  0.30330119    -0.18510
C3081       C  0.55642139  0.66737188  0.27634551     0.09810
C3082       C  0.54784589  0.67612816  0.24695648    -0.07310
C3083       C  0.01974592  0.67625478  0.24610582    -0.18550
C3084       C  0.99826196  0.66393336  0.27132058     0.09840
S3085       S  0.59253280  0.66747559  0.28052802    -0.33510
S3086       S  0.96008894  0.65775706  0.26106150    -0.33520
H3087       H  0.94345938  0.64069661  0.28779202     0.27850
H3088       H  0.60806098  0.68880721  0.25580053     0.27850
H3089       H  0.54251385  0.65037028  0.32548137     0.18440
H3090       H  0.01252079  0.68227699  0.22348603     0.18450
C3091       C  0.85025472  0.00045030  0.05095268    -0.07390
C3092       C  0.87769767  0.52885948  0.05581801    -0.18510
C3093       C  0.89157772  0.54828482  0.02929082     0.09810
C3094       C  0.87751132  0.53938890  0.49726025    -0.07310
C3095       C  0.84848499  0.01250925  0.49333166    -0.18550
C3096       C  0.83500915  0.99279387  0.51956929     0.09840
S3097       S  0.92803524  0.58312444  0.03750409    -0.33510
S3098       S  0.80022823  0.95636044  0.51039918    -0.33520
H3099       H  0.78811505  0.95431439  0.04209440     0.27850
H3100       H  0.92436251  0.59906253  0.01146314     0.27850
H3101       H  0.88979000  0.53468397  0.07963678     0.18440
H3102       H  0.83755800  0.00525389  0.46890292     0.18450
C3103       C  0.86479403  0.51616854  0.29013501    -0.07390
C3104       C  0.88381320  0.50452327  0.27921126    -0.18510
C3105       C  0.87847300  0.48838650  0.24891366     0.09810
C3106       C  0.85291995  0.98300813  0.22850692    -0.07310
C3107       C  0.83250870  0.49283890  0.24048400    -0.18550
C3108       C  0.83834634  0.50963674  0.27089171     0.09840
S3109       S  0.90798725  0.97959145  0.23635820    -0.33510
S3110       S  0.81288298  0.52426301  0.28222423    -0.33520
H3111       H  0.83675559  0.55408908  0.29196626     0.27850
H3112       H  0.88789164  0.94760659  0.23707085     0.27850
H3113       H  0.90435459  0.50973954  0.29371283     0.18440
H3114       H  0.81281809  0.98891359  0.22524604     0.18450
C3115       C  0.51857957  0.58637197  0.40452795    -0.07390
C3116       C  0.53369961  0.59222730  0.37426611    -0.18510
C3117       C  0.56031506  0.59030825  0.37035681     0.09810
C3118       C  0.57392961  0.58461646  0.39831472    -0.07310
C3119       C  0.55730077  0.57583701  0.42774265    -0.18550
C3120       C  0.52932204  0.57576802  0.43090519     0.09840
S3121       S  0.57502835  0.59561521  0.32877594    -0.33510
S3122       S  0.50847994  0.56071718  0.46852246    -0.33520
H3123       H  0.50748926  0.58752483  0.47771737     0.27850
H3124       H  0.57859740  0.56930807  0.32882672     0.27850
H3125       H  0.52458335  0.59818253  0.35306321     0.18440
H3126       H  0.56643398  0.56963781  0.44872054     0.18450
C3127       C  0.83192603  0.59511819  0.36210875    -0.07390
C3128       C  0.80747111  0.57472786  0.38184946    -0.18510
C3129       C  0.77747456  0.56988477  0.37761312     0.09810
C3130       C  0.77168736  0.58680207  0.35388273    -0.07310
C3131       C  0.79649090  0.60776236  0.33471444    -0.18550
C3132       C  0.82628952  0.61208090  0.33853950     0.09840
S3133       S  0.74775770  0.54050456  0.40202292    -0.33510
S3134       S  0.85613182  0.64013779  0.31312641    -0.33520
H3135       H  0.87922411  0.65067620  0.33799794     0.27850
H3136       H  0.72737723  0.52570157  0.37472438     0.27850
H3137       H  0.81131006  0.56100019  0.39952812     0.18440
H3138       H  0.79288912  0.62135583  0.31668076     0.18450
C3139       C  0.98870294  0.83746957  0.47714900    -0.07390
C3140       C  0.51935727  0.84392276  0.47539536    -0.18510
C3141       C  0.53772277  0.85081370  0.50405867     0.09810
C3142       C  0.52547217  0.85172329  0.03554722    -0.07310
C3143       C  0.49381844  0.84145411  0.03769376    -0.18550
C3144       C  0.97515491  0.83413665  0.00886519     0.09840
S3145       S  0.57734493  0.86036355  0.49816528    -0.33510
S3146       S  0.93438145  0.82125683  0.01329528    -0.33520
H3147       H  0.93335663  0.81737871  0.54771393     0.27850
H3148       H  0.58324229  0.85624195  0.03077783     0.27850
H3149       H  0.52967764  0.84532488  0.45144067     0.18440
H3150       H  0.98432243  0.84162741  0.06170731     0.18450
C3151       C  0.51577643  0.88937004  0.21677124    -0.07390
C3152       C  0.00331993  0.85848184  0.22613732    -0.18510
C3153       C  0.98813312  0.84835952  0.25628290     0.09810
C3154       C  0.98516694  0.86958087  0.27817311    -0.07310
C3155       C  0.49686534  0.90015324  0.26828612    -0.18550
C3156       C  0.51235068  0.91038792  0.23862078     0.09840
S3157       S  0.97378256  0.80830661  0.26514178    -0.33510
S3158       S  0.52813054  0.95108955  0.23174439    -0.33520
H3159       H  0.55897760  0.95725033  0.23171504     0.27850
H3160       H  0.94349771  0.80222872  0.27133171     0.27850
H3161       H  0.00568105  0.84196889  0.21002450     0.18440
H3162       H  0.49485775  0.91691921  0.28434932     0.18450
C3163       C  0.90660397  0.98617178  0.38797317    -0.07390
C3164       C  0.93448588  0.98784392  0.39846861    -0.18510
C3165       C  0.93930107  0.96279281  0.39439606     0.09810
C3166       C  0.91617043  0.93520906  0.37887415    -0.07310
C3167       C  0.88783288  0.93260842  0.36943111    -0.18550
C3168       C  0.88279707  0.95779298  0.37356529     0.09840
S3169       S  0.97497762  0.96697865  0.41070152    -0.33510
S3170       S  0.84600214  0.95203410  0.35916465    -0.33520
H3171       H  0.85944605  0.47873287  0.34067044     0.27850
H3172       H  0.96022487  0.93774682  0.42485430     0.27850
H3173       H  0.95289870  0.00880878  0.41045653     0.18440
H3174       H  0.86999722  0.91121947  0.35749953     0.18450
C3175       C  0.92600672  0.74014710  0.38697111    -0.07390
C3176       C  0.93880983  0.73451044  0.35845638    -0.18510
C3177       C  0.94233030  0.70872490  0.35492211     0.09810
C3178       C  0.93065808  0.68609403  0.37914619    -0.07310
C3179       C  0.91699394  0.69095169  0.40741769    -0.18550
C3180       C  0.91506068  0.71795486  0.41193298     0.09840
S3181       S  0.96500432  0.70835472  0.32052359    -0.33510
S3182       S  0.89851704  0.72244323  0.44987629    -0.33520
H3183       H  0.92675893  0.74786069  0.46153296     0.27850
H3184       H  0.98340723  0.70046048  0.33977085     0.27850
H3185       H  0.94809033  0.75130623  0.33924869     0.18440
H3186       H  0.90807381  0.67378296  0.42627774     0.18450
C3187       C  0.58013932  0.99291582  0.39055325    -0.07390
C3188       C  0.56708821  0.97973816  0.42111413    -0.18510
C3189       C  0.54100365  0.94969068  0.42281423     0.09810
C3190       C  0.52753039  0.93149576  0.39341041    -0.07310
C3191       C  0.54010697  0.94466166  0.36300702    -0.18550
C3192       C  0.56516928  0.97504695  0.36113038     0.09840
S3193       S  0.52656421  0.93570506  0.46327059    -0.33510
S3194       S  0.57548752  0.98969748  0.32014531    -0.33520
H3195       H  0.57711335  0.51807976  0.32881173     0.27850
H3196       H  0.01406073  0.90409084  0.45469047     0.27850
H3197       H  0.57757998  0.99268551  0.44412912     0.18440
H3198       H  0.52945092  0.93150146  0.34014041     0.18450
C3199       C  0.82675170  0.74338479  0.37319539    -0.07390
C3200       C  0.81695423  0.72256507  0.39928541    -0.18510
C3201       C  0.78692993  0.69667306  0.40000272     0.09810
C3202       C  0.76525764  0.69059436  0.37403415    -0.07310
C3203       C  0.77481475  0.71108195  0.34779376    -0.18550
C3204       C  0.80512920  0.73682948  0.34676465     0.09840
S3205       S  0.77734828  0.67285791  0.43559366    -0.33510
S3206       S  0.81435329  0.76035884  0.31108836    -0.33520
H3207       H  0.84071977  0.75793445  0.30373109     0.27850
H3208       H  0.74624163  0.66566167  0.43636796     0.27850
H3209       H  0.83266865  0.72680012  0.41997768     0.18440
H3210       H  0.75884431  0.70636115  0.32721158     0.18450
C3211       C  0.85781002  0.84742399  0.45649833    -0.07390
C3212       C  0.87382778  0.87874641  0.46630222    -0.18510
C3213       C  0.87249690  0.88829264  0.99857523     0.09810
C3214       C  0.85199502  0.86640500  0.02110248    -0.07310
C3215       C  0.83403208  0.83516529  0.01045851    -0.18550
C3216       C  0.83743032  0.82538549  0.47857804     0.09840
S3217       S  0.90003664  0.92828825  0.00977124    -0.33510
S3218       S  0.81686692  0.78455758  0.46781935    -0.33520
H3219       H  0.84411002  0.78343775  0.46191076     0.27850
H3220       H  0.90786786  0.92144851  0.04055702     0.27850
H3221       H  0.89059960  0.89548268  0.44984622     0.18440
H3222       H  0.81782570  0.81830496  0.02712709     0.18450
C3223       C  0.86855452  0.88399551  0.22161027    -0.07390
C3224       C  0.88787684  0.87108743  0.22317749    -0.18510
C3225       C  0.89056800  0.85780893  0.25212486     0.09810
C3226       C  0.87525485  0.85915161  0.28109237    -0.07310
C3227       C  0.85548319  0.87163719  0.27933872    -0.18550
C3228       C  0.85137048  0.88331348  0.24979389     0.09840
S3229       S  0.91209706  0.83762475  0.24967149    -0.33510
S3230       S  0.82574740  0.89916354  0.25046880    -0.33520
H3231       H  0.80922802  0.88327974  0.22133722     0.27850
H3232       H  0.89514922  0.81610127  0.27377303     0.27850
H3233       H  0.89997311  0.87018869  0.20122871     0.18560
H3234       H  0.84374397  0.87304874  0.30134997     0.18450
O3235       O  0.94576218  0.91557431  0.85350077    -0.81400
O3236       O  0.95092663  0.84257987  0.94719308    -0.81420
O3237       O  0.86131116  0.82793311  0.90246849    -0.81430
O3238       O  0.99980578  0.87725418  0.87773822    -0.81370
O3239       O  0.89975427  0.84443020  0.93780252    -0.81500
O3240       O  0.97298956  0.89744263  0.89932049    -0.81410
O3241       O  0.97784461  0.82685341  0.91834648    -0.81400
O3242       O  0.90318589  0.88221668  0.87917816    -0.81440
C3243       C  0.92201504  0.90994299  0.86987434     1.08290
C3244       C  0.97195616  0.83579620  0.94595566     1.08180
C3245       C  0.87297196  0.83897837  0.93091517     1.08310
C3246       C  0.99899033  0.90008765  0.89218916     1.08190
O3247       O  0.97183938  0.88343500  0.82994007    -0.81400
O3248       O  0.86922593  0.78178159  0.90667157    -0.81480
O3249       O  0.86199342  0.83950451  0.83568792    -0.81410
O3250       O  0.93662764  0.78756545  0.86520356    -0.81390
O3251       O  0.92238425  0.78055672  0.91709510    -0.81440
O3252       O  0.91127140  0.86008234  0.82126374    -0.81410
O3253       O  0.96052408  0.83553995  0.82328792    -0.81370
O3254       O  0.87050081  0.79097309  0.85354404    -0.81440
Co3255     Co  0.94044862  0.87679085  0.86393307     1.51530
Co3256     Co  0.91161104  0.81409114  0.92514997     1.51690
Co3257     Co  0.89036594  0.83621779  0.86443820     1.51570
Co3258     Co  0.96611702  0.83174388  0.87132262     1.51470
O3259       O  0.92829943  0.83606766  0.88265738    -1.43330
C3260       C  0.97153560  0.86212325  0.81179488     1.08220
C3261       C  0.85753950  0.77311864  0.87737948     1.08310
C3262       C  0.88277416  0.85211376  0.81410186     1.08240
C3263       C  0.92738803  0.77050244  0.88985653     1.08220
O3264       O  0.96088964  0.61174130  0.81945793    -0.81400
O3265       O  0.92822232  0.53870672  0.90340654    -0.81420
O3266       O  0.48663592  0.60540974  0.88437876    -0.81430
O3267       O  0.86202611  0.53996543  0.84236856    -0.81370
O3268       O  0.97428962  0.58301656  0.93042780    -0.81500
O3269       O  0.90523190  0.56096333  0.81449820    -0.81410
O3270       O  0.87986295  0.51550808  0.88959139    -0.81400
O3271       O  0.98420969  0.65042722  0.85514421    -0.81440
C3272       C  0.98327261  0.63829049  0.82664878     1.08290
C3273       C  0.90436175  0.51460740  0.89359649     1.08180
C3274       C  0.49214747  0.59175660  0.90669469     1.08310
C3275       C  0.87768589  0.53983875  0.81744692     1.08190
O3276       O  0.87551707  0.59506743  0.83784876    -0.81400
O3277       O  0.94702334  0.61899199  0.94832177    -0.81480
O3278       O  0.93585374  0.64510018  0.90024649    -0.81410
O3279       O  0.88070766  0.55797463  0.94223483    -0.81390
O3280       O  0.92213009  0.55854910  0.96433228    -0.81440
O3281       O  0.93176901  0.64617216  0.84651504    -0.81410
O3282       O  0.86956151  0.58906427  0.89123655    -0.81370
O3283       O  0.99040277  0.65283997  0.92446223    -0.81440
Co3284     Co  0.91889146  0.60233097  0.83235899     1.51530
Co3285     Co  0.93271216  0.57697697  0.92302588     1.51690
Co3286     Co  0.96019534  0.62404102  0.89361400     1.51570
Co3287     Co  0.87747989  0.55430692  0.89035821     1.51470
O3288       O  0.92405385  0.58641830  0.87685893    -1.43330
C3289       C  0.86131748  0.59466020  0.86408294     1.08220
C3290       C  0.97562705  0.64141039  0.95074632     1.08310
C3291       C  0.93231920  0.65748237  0.87525247     1.08240
C3292       C  0.89453703  0.55306124  0.96669331     1.08220
O3293       O  0.52908746  0.90046521  0.61430900    -0.81400
O3294       O  0.65981868  0.98304580  0.57153154    -0.81420
O3295       O  0.59335420  0.98654951  0.64999110    -0.81430
O3296       O  0.56625201  0.89910365  0.55475128    -0.81370
O3297       O  0.62554544  0.00310351  0.60833361    -0.81500
O3298       O  0.54520431  0.86438493  0.59274512    -0.81410
O3299       O  0.61832211  0.95176202  0.54234540    -0.81400
O3300       O  0.55211034  0.94817840  0.60972004    -0.81440
C3301       C  0.52739947  0.92360208  0.60627420     1.08290
C3302       C  0.64524147  0.97461373  0.54423550     1.08180
C3303       C  0.60747040  0.00655511  0.62809001     1.08310
C3304       C  0.54643401  0.87217951  0.56260440     1.08190
O3305       O  0.59439644  0.88055965  0.64125217    -0.81400
O3306       O  0.64133367  0.98215145  0.66470018    -0.81480
O3307       O  0.54498272  0.92738557  0.67657243    -0.81410
O3308       O  0.65478011  0.92939790  0.57688551    -0.81390
O3309       O  0.66424742  0.95206420  0.62698361    -0.81440
O3310       O  0.53947709  0.88003236  0.66851791    -0.81410
O3311       O  0.60174558  0.87668148  0.58800430    -0.81370
O3312       O  0.60307812  0.93893528  0.68005257    -0.81440
Co3313     Co  0.56680697  0.89775882  0.62973516     1.51530
Co3314     Co  0.64437062  0.97669091  0.61732177     1.51690
Co3315     Co  0.57705803  0.94070941  0.64266529     1.51570
Co3316     Co  0.60954125  0.91561079  0.56756305     1.51470
O3317       O  0.60278726  0.93674665  0.60749700    -1.43330
C3318       C  0.59935517  0.86663738  0.61688772     1.08220
C3319       C  0.62730442  0.96439463  0.68753704     1.08310
C3320       C  0.53378302  0.89919669  0.68567368     1.08240
C3321       C  0.67019670  0.93789954  0.60422183     1.08220
O3322       O  0.65609284  0.61041567  0.82292619    -0.81400
O3323       O  0.62485094  0.53399596  0.86402477    -0.81420
O3324       O  0.67571322  0.56153580  0.81497758    -0.81430
O3325       O  0.62001376  0.59048843  0.92458011    -0.81370
O3326       O  0.66829141  0.52025848  0.84103606    -0.81500
O3327       O  0.62032335  0.59871783  0.87164209    -0.81410
O3328       O  0.62299816  0.53772221  0.91827274    -0.81400
O3329       O  0.70344413  0.62549236  0.81187887    -0.81440
C3330       C  0.67708005  0.62014494  0.80239099     1.08290
C3331       C  0.61034755  0.52353448  0.89067100     1.08180
C3332       C  0.66833259  0.53256023  0.81422485     1.08310
C3333       C  0.60615133  0.59076891  0.89819710     1.08190
O3334       O  0.66625331  0.64788209  0.91332538    -0.81400
O3335       O  0.71891220  0.57120722  0.86982995    -0.81480
O3336       O  0.73401994  0.63578676  0.87510497    -0.81410
O3337       O  0.68941999  0.57374490  0.93833606    -0.81390
O3338       O  0.66985089  0.53296366  0.90546509    -0.81440
O3339       O  0.70964164  0.66115660  0.86304539    -0.81410
O3340       O  0.68477421  0.62571445  0.94450822    -0.81370
O3341       O  0.73748534  0.59900437  0.82571767    -0.81440
Co3342     Co  0.66383744  0.62776603  0.86807603     1.51530
Co3343     Co  0.67093044  0.55482401  0.86553546     1.51690
Co3344     Co  0.70417217  0.59886037  0.84818842     1.51570
Co3345     Co  0.65603547  0.58281208  0.92886672     1.51470
O3346       O  0.67198468  0.59387462  0.88181830    -1.43330
C3347       C  0.67676788  0.64583945  0.94130027     1.08220
C3348       C  0.74113384  0.58480478  0.84911745     1.08310
C3349       C  0.73454183  0.66117325  0.87146124     1.08240
C3350       C  0.68295160  0.54622151  0.93260540     1.08220
O3351       O  0.53751418  0.60498402  0.66918337    -0.81400
O3352       O  0.61910437  0.70140357  0.54947837    -0.81420
O3353       O  0.53950131  0.67858086  0.59854649    -0.81430
O3354       O  0.62354230  0.63920028  0.62617418    -0.81370
O3355       O  0.56585232  0.65870904  0.57772103    -0.81500
O3356       O  0.57419960  0.62118797  0.61691633    -0.81410
O3357       O  0.64525436  0.68837764  0.58415555    -0.81400
O3358       O  0.52407328  0.63916073  0.65119947    -0.81440
C3359       C  0.51723299  0.61143986  0.65922087     1.08290
C3360       C  0.63960522  0.69362643  0.55427058     1.08180
C3361       C  0.54351237  0.66349559  0.57507121     1.08310
C3362       C  0.59724744  0.61702708  0.61679015     1.08190
O3363       O  0.60073572  0.63366132  0.68296231    -0.81400
O3364       O  0.58878793  0.72773429  0.58939463    -0.81480
O3365       O  0.56247338  0.69622806  0.69375821    -0.81410
O3366       O  0.66177782  0.72939988  0.64538034    -0.81390
O3367       O  0.64013891  0.73689563  0.60310376    -0.81440
O3368       O  0.56723916  0.65660905  0.70413966    -0.81410
O3369       O  0.63978374  0.68071267  0.68385376    -0.81370
O3370       O  0.58079611  0.73101647  0.64226725    -0.81440
Co3371     Co  0.57116273  0.64231665  0.65800747     1.51530
Co3372     Co  0.60379631  0.69606298  0.59321706     1.51690
Co3373     Co  0.55551974  0.68631121  0.64609668     1.51570
Co3374     Co  0.63917892  0.68474699  0.63563551     1.51470
O3375       O  0.59644319  0.68393191  0.63997842    -1.43330
C3376       C  0.62686359  0.65401803  0.69511773     1.08220
C3377       C  0.58732287  0.74331804  0.61466890     1.08310
C3378       C  0.56188050  0.67762497  0.71405799     1.08240
C3379       C  0.66071904  0.74733644  0.62520688     1.08220
O3380       O  0.90312347  0.93647725  0.60840785    -0.81400
O3381       O  0.84949675  0.95509984  0.56493367    -0.81420
O3382       O  0.83444449  0.85943994  0.57761884    -0.81430
O3383       O  0.88370424  0.98604637  0.63231068    -0.81370
O3384       O  0.85079120  0.90387602  0.55536580    -0.81500
O3385       O  0.91647277  0.97695706  0.66082773    -0.81410
O3386       O  0.83214182  0.97469519  0.60253273    -0.81400
O3387       O  0.88387315  0.88800032  0.62183625    -0.81440
C3388       C  0.90574956  0.91246198  0.60965190     1.08290
C3389       C  0.84366217  0.97590213  0.57421142     1.08180
C3390       C  0.84614780  0.87693940  0.55335299     1.08310
C3391       C  0.91047708  0.99535442  0.64603513     1.08190
O3392       O  0.85880420  0.95151662  0.68565424    -0.81400
O3393       O  0.78691468  0.86724386  0.57893836    -0.81480
O3394       O  0.83922938  0.88099522  0.67438337    -0.81410
O3395       O  0.79236565  0.92425439  0.64397233    -0.81390
O3396       O  0.78692390  0.92069942  0.58956623    -0.81440
O3397       O  0.88715771  0.91728086  0.67545310    -0.81410
O3398       O  0.83768940  0.97986385  0.67159792    -0.81370
O3399       O  0.79467087  0.85829264  0.62994344    -0.81440
Co3400     Co  0.87958674  0.94350276  0.64383275     1.51530
Co3401     Co  0.82016414  0.91201871  0.57421569     1.51690
Co3402     Co  0.83804116  0.87411807  0.62594764     1.51570
Co3403     Co  0.83789168  0.95135090  0.63964378     1.51470
O3404       O  0.84078969  0.91584214  0.61838836    -1.43330
C3405       C  0.84943483  0.97092691  0.69369628     1.08220
C3406       C  0.77665698  0.85349432  0.60597113     1.08310
C3407       C  0.86479444  0.89517064  0.68947016     1.08240
C3408       C  0.77644878  0.92136173  0.61806937     1.08220
C3409       C  0.98600846  0.58603174  0.65339019    -0.07390
C3410       C  0.97993041  0.56935257  0.62301263    -0.18510
C3411       C  0.95382411  0.54008324  0.61870192     0.09810
C3412       C  0.93384500  0.52767659  0.64552372    -0.07310
C3413       C  0.93865882  0.54537573  0.67489160    -0.18550
C3414       C  0.96467819  0.57458870  0.67909301     0.09840
S3415       S  0.94927687  0.51875705  0.58003616    -0.33510
S3416       S  0.97082437  0.59501659  0.71847235    -0.33520
H3417       H  0.98648704  0.62445404  0.70499554     0.27850
H3418       H  0.91708360  0.99911288  0.58122534     0.27850
H3419       H  0.99665672  0.57831003  0.60337878     0.18440
H3420       H  0.92289287  0.53574843  0.69524318     0.18450
C3421       C  0.74400256  0.83008233  0.61081212    -0.07390
C3422       C  0.73572660  0.81931116  0.64326326    -0.18510
C3423       C  0.70686101  0.79449575  0.64987374     0.09810
C3424       C  0.68571518  0.77942662  0.62347647    -0.07310
C3425       C  0.69223551  0.79243376  0.59199100    -0.18550
C3426       C  0.72131122  0.81724912  0.58520460     0.09840
S3427       S  0.69878948  0.78284241  0.69221371    -0.33510
S3428       S  0.72843590  0.82922886  0.54302722    -0.33520
H3429       H  0.75240828  0.82216680  0.53947553     0.27850
H3430       H  0.66665995  0.77132834  0.68912106     0.27850
H3431       H  0.75201423  0.82991913  0.66395659     0.18440
H3432       H  0.67575775  0.78136351  0.57152073     0.18450
C3433       C  0.64267143  0.64559341  0.72061967    -0.07390
C3434       C  0.62706061  0.61501276  0.73109510    -0.18510
C3435       C  0.64003980  0.60505797  0.75483342     0.09810
C3436       C  0.66937617  0.62595369  0.76925827    -0.07310
C3437       C  0.68615308  0.65587491  0.75746099    -0.18550
C3438       C  0.67308549  0.66609683  0.73362399     0.09840
S3439       S  0.61717101  0.56567445  0.76738472    -0.33510
S3440       S  0.69598331  0.70596150  0.72268013    -0.33520
H3441       H  0.67322046  0.71334007  0.73252405     0.27850
H3442       H  0.64271759  0.56109030  0.76770249     0.27850
H3443       H  0.60417628  0.59858993  0.72120188     0.18440
H3444       H  0.70833203  0.67224364  0.76900506     0.18450
C3445       C  0.65548498  0.68762056  0.52579250    -0.07390
C3446       C  0.66767948  0.66790048  0.53065363    -0.18510
C3447       C  0.67771902  0.65634025  0.50421355     0.09810
C3448       C  0.67496326  0.66379912  0.97114352    -0.07310
C3449       C  0.66530969  0.68572925  0.96666223    -0.18550
C3450       C  0.65628184  0.69811145  0.49345343     0.09840
S3451       S  0.69194277  0.63072856  0.51489698    -0.33510
S3452       S  0.64637300  0.72737820  0.98465658    -0.33520
H3453       H  0.65950097  0.74476533  0.51442793     0.27850
H3454       H  0.71862518  0.64598270  0.99566956     0.27850
H3455       H  0.66828208  0.66019791  0.55529451     0.18440
H3456       H  0.66394270  0.69277161  0.94190610     0.18450
C3457       C  0.66061780  0.99121569  0.51466948    -0.07390
C3458       C  0.68400719  0.52240708  0.51857394    -0.18510
C3459       C  0.69612527  0.54054477  0.49110639     0.09810
C3460       C  0.68354205  0.52746388  0.95941541    -0.07310
C3461       C  0.66394907  0.99529900  0.95536580    -0.18550
C3462       C  0.65244755  0.97702301  0.98261739     0.09840
S3463       S  0.72662461  0.58013550  0.49814462    -0.33510
S3464       S  0.62691611  0.93615651  0.97444652    -0.33520
H3465       H  0.63907522  0.92716876  0.50062098     0.27850
H3466       H  0.73980139  0.58241486  0.46679745     0.27850
H3467       H  0.69202374  0.53310406  0.54311402     0.18440
H3468       H  0.65538044  0.98450327  0.93096426     0.18450
C3469       C  0.63902299  0.97786613  0.72192679    -0.07390
C3470       C  0.66458358  0.50850902  0.72378541    -0.18510
C3471       C  0.67426007  0.52649624  0.75320045     0.09810
C3472       C  0.65905462  0.51368169  0.78268134    -0.07310
C3473       C  0.63527039  0.48231170  0.78194216    -0.18550
C3474       C  0.62503103  0.96432975  0.75195483     0.09840
S3475       S  0.70685644  0.56561564  0.75253694    -0.33510
S3476       S  0.59457216  0.92464666  0.75386001    -0.33520
H3477       H  0.60798378  0.91331748  0.73069573     0.27850
H3478       H  0.70857288  0.56815153  0.71790979     0.27850
H3479       H  0.67697112  0.51925138  0.70168411     0.18440
H3480       H  0.62421921  0.97186814  0.80479303     0.18450
C3481       C  0.60231188  0.53367399  0.62470713    -0.07390
C3482       C  0.60908334  0.54891495  0.59436768    -0.18510
C3483       C  0.60454368  0.57429848  0.58952201     0.09810
C3484       C  0.59313015  0.58525361  0.61542305    -0.07310
C3485       C  0.58449402  0.56892409  0.64484172    -0.18550
C3486       C  0.58945817  0.54397843  0.65006107     0.09840
S3487       S  0.61311297  0.59138291  0.54955570    -0.33510
S3488       S  0.58058059  0.52783715  0.69049955    -0.33520
H3489       H  0.60922017  0.52894967  0.69473523     0.27850
H3490       H  0.59516792  0.60592742  0.55271739     0.27850
H3491       H  0.61791327  0.54097291  0.57407396     0.18440
H3492       H  0.57560468  0.57691023  0.66499087     0.18450
C3493       C  0.59250979  0.77560399  0.61376889    -0.07390
C3494       C  0.60489054  0.79534946  0.64255872    -0.18510
C3495       C  0.60749992  0.82492596  0.64531145     0.09810
C3496       C  0.59767560  0.83564651  0.61842147    -0.07310
C3497       C  0.58524964  0.81560433  0.58983034    -0.18550
C3498       C  0.58239592  0.78615508  0.58728064     0.09840
S3499       S  0.62300576  0.84681153  0.68395544    -0.33510
S3500       S  0.56352475  0.76243957  0.55050200    -0.33520
H3501       H  0.54426266  0.73558741  0.56774789     0.27850
H3502       H  0.63396563  0.87649521  0.67207142     0.27850
H3503       H  0.61244320  0.78750250  0.66348439     0.18440
H3504       H  0.57621891  0.82229309  0.56932958     0.18450
C3505       C  0.69734642  0.93383345  0.60870933    -0.07390
C3506       C  0.69427995  0.90830625  0.62557540    -0.18510
C3507       C  0.71985703  0.90422026  0.63139564     0.09810
C3508       C  0.74912776  0.92576601  0.61913588    -0.07310
C3509       C  0.75198191  0.95141967  0.60253532    -0.18550
C3510       C  0.72668669  0.95579115  0.59746467     0.09840
S3511       S  0.71286583  0.87056158  0.65328136    -0.33510
S3512       S  0.73306748  0.98936413  0.57558595    -0.33520
H3513       H  0.71499091  0.99662728  0.59673106     0.27850
H3514       H  0.74323154  0.88220625  0.66541282     0.27850
H3515       H  0.67171293  0.89126477  0.63401222     0.18440
H3516       H  0.77427756  0.96830462  0.59318774     0.18450
C3517       C  0.93597184  0.91431282  0.60081154    -0.07390
C3518       C  0.96259872  0.94373122  0.59864922    -0.18510
C3519       C  0.99255401  0.94754733  0.59774660     0.09810
C3520       C  0.99671457  0.92140183  0.59888443    -0.07310
C3521       C  0.96990252  0.89187939  0.59806431    -0.18550
C3522       C  0.93994674  0.88803321  0.59839521     0.09840
S3523       S  0.52437840  0.98664328  0.59776517    -0.33510
S3524       S  0.90795292  0.84884155  0.59603846    -0.33520
H3525       H  0.89018948  0.85565878  0.57436392     0.27850
H3526       H  0.53274642  0.98551739  0.63079861     0.27850
H3527       H  0.96036641  0.96429332  0.59975572     0.18440
H3528       H  0.97216590  0.87138375  0.59849762     0.18450
C3529       C  0.99303231  0.64974383  0.98264928    -0.07390
C3530       C  0.51934341  0.64642364  0.98337306    -0.18510
C3531       C  0.53517862  0.64882556  0.51301344     0.09810
C3532       C  0.52537533  0.65641826  0.54319494    -0.07310
C3533       C  0.49949056  0.66093002  0.54208943    -0.18550
C3534       C  0.98334722  0.65776968  0.51224021     0.09840
S3535       S  0.56726430  0.64136750  0.01097426    -0.33510
S3536       S  0.95171020  0.66569638  0.51325233    -0.33520
H3537       H  0.95311588  0.67338656  0.97981010     0.27850
H3538       H  0.56852811  0.63887099  0.47625562     0.27850
H3539       H  0.52674813  0.64043976  0.96045592     0.18440
H3540       H  0.99197546  0.66746721  0.56458637     0.18450
C3541       C  0.00645927  0.65480418  0.80086435    -0.07390
C3542       C  0.53604144  0.65764880  0.80330269    -0.18510
C3543       C  0.55642340  0.66737579  0.77634667     0.09810
C3544       C  0.54784635  0.67613013  0.74695732    -0.07310
C3545       C  0.01973887  0.67624756  0.74609698    -0.18550
C3546       C  0.99825931  0.66392898  0.77131625     0.09840
S3547       S  0.59253631  0.66748250  0.78052920    -0.33510
S3548       S  0.96008459  0.65775122  0.76106320    -0.33520
H3549       H  0.94346340  0.64070942  0.78780678     0.27850
H3550       H  0.60806282  0.68881343  0.75580063     0.27850
H3551       H  0.54251743  0.65037516  0.82548312     0.18440
H3552       H  0.01250965  0.68226550  0.72347705     0.18450
C3553       C  0.85025432  0.00045074  0.55095310    -0.07390
C3554       C  0.87770015  0.52885275  0.55581930    -0.18510
C3555       C  0.89158348  0.54827962  0.52929446     0.09810
C3556       C  0.87750812  0.53938601  0.99725621    -0.07310
C3557       C  0.84848561  0.01250870  0.99333118    -0.18550
C3558       C  0.83500984  0.99279320  0.01956867     0.09840
S3559       S  0.92804928  0.58310866  0.53751103    -0.33510
S3560       S  0.80022962  0.95635932  0.01039797    -0.33520
H3561       H  0.78811435  0.95431593  0.54209599     0.27850
H3562       H  0.92438838  0.59905191  0.51146872     0.27850
H3563       H  0.88979309  0.53467182  0.57963744     0.18440
H3564       H  0.83755887  0.00525325  0.96890234     0.18450
C3565       C  0.86479416  0.51617512  0.79012841    -0.07390
C3566       C  0.88381365  0.50452990  0.77920568    -0.18510
C3567       C  0.87847335  0.48839186  0.74890900     0.09810
C3568       C  0.85291961  0.98300800  0.72850714    -0.07310
C3569       C  0.83250845  0.49284313  0.74047834    -0.18550
C3570       C  0.83834627  0.50964241  0.77088506     0.09840
S3571       S  0.90798720  0.97959176  0.73635802    -0.33510
S3572       S  0.81288275  0.52426893  0.78221622    -0.33520
H3573       H  0.83675440  0.55409385  0.79196380     0.27850
H3574       H  0.88789228  0.94760687  0.73707196     0.27850
H3575       H  0.90435521  0.50974694  0.79370739     0.18440
H3576       H  0.81281773  0.98891345  0.72524635     0.18450
C3577       C  0.51858225  0.58637314  0.90452874    -0.07390
C3578       C  0.53370296  0.59223011  0.87426723    -0.18510
C3579       C  0.56031798  0.59031036  0.87035727     0.09810
C3580       C  0.57393143  0.58461603  0.89831434    -0.07310
C3581       C  0.55730217  0.57583553  0.92774193    -0.18550
C3582       C  0.52932388  0.57576736  0.93090502     0.09840
S3583       S  0.57503222  0.59561993  0.82877673    -0.33510
S3584       S  0.50848119  0.56071512  0.96852166    -0.33520
H3585       H  0.50749093  0.58752273  0.97771804     0.27850
H3586       H  0.57859791  0.56931066  0.82882411     0.27850
H3587       H  0.52458750  0.59818705  0.85306499     0.18440
H3588       H  0.56643464  0.56963465  0.94871911     0.18450
C3589       C  0.83193252  0.59512606  0.86211445    -0.07390
C3590       C  0.80747610  0.57473087  0.88185044    -0.18510
C3591       C  0.77747933  0.56988701  0.87761308     0.09810
C3592       C  0.77169317  0.58680774  0.85388619    -0.07310
C3593       C  0.79649851  0.60777392  0.83472381    -0.18550
C3594       C  0.82629762  0.61209378  0.83855031     0.09840
S3595       S  0.74776085  0.54050127  0.90201648    -0.33510
S3596       S  0.85614281  0.64015869  0.81314610    -0.33520
H3597       H  0.87923353  0.65068900  0.83801882     0.27850
H3598       H  0.72738276  0.52570279  0.87471520     0.27850
H3599       H  0.81131413  0.56099996  0.89952555     0.18440
H3600       H  0.79289764  0.62137082  0.81669382     0.18450
C3601       C  0.98870241  0.83746730  0.97714731    -0.07390
C3602       C  0.51935417  0.84392073  0.97539494    -0.18510
C3603       C  0.53772011  0.85081224  0.00405805     0.09810
C3604       C  0.52547439  0.85172430  0.53554770    -0.07310
C3605       C  0.49382058  0.84145475  0.53769392    -0.18550
C3606       C  0.97515647  0.83413993  0.50886736     0.09840
S3607       S  0.57734221  0.86036203  0.99816421    -0.33510
S3608       S  0.93438306  0.82125969  0.51329868    -0.33520
H3609       H  0.93335417  0.81737655  0.04771069     0.27850
H3610       H  0.58324463  0.85624319  0.53077889     0.27850
H3611       H  0.52967422  0.84532234  0.95144015     0.18440
H3612       H  0.98432551  0.84163240  0.56170920     0.18450
C3613       C  0.51577741  0.88937099  0.71677116    -0.07390
C3614       C  0.00332085  0.85848362  0.72613532    -0.18510
C3615       C  0.98813363  0.84836029  0.75628056     0.09810
C3616       C  0.98516681  0.86958082  0.77817140    -0.07310
C3617       C  0.49686597  0.90015341  0.76828640    -0.18550
C3618       C  0.51235128  0.91038847  0.73862097     0.09840
S3619       S  0.97378338  0.80830718  0.76513820    -0.33510
S3620       S  0.52813049  0.95108998  0.73174458    -0.33520
H3621       H  0.55897774  0.95725129  0.73171581     0.27850
H3622       H  0.94349852  0.80222893  0.77132880     0.27850
H3623       H  0.00568253  0.84197127  0.71002209     0.18440
H3624       H  0.49485804  0.91691909  0.78434975     0.18450
C3625       C  0.90660401  0.98617085  0.88797337    -0.07390
C3626       C  0.93448588  0.98784290  0.89846884    -0.18510
C3627       C  0.93930103  0.96279172  0.89439631     0.09810
C3628       C  0.91617036  0.93520792  0.87887445    -0.07310
C3629       C  0.88783283  0.93260739  0.86943141    -0.18550
C3630       C  0.88279710  0.95779203  0.87356553     0.09840
S3631       S  0.97497762  0.96697757  0.91070165    -0.33510
S3632       S  0.84600227  0.95203328  0.85916472    -0.33520
H3633       H  0.85944157  0.47872923  0.84065601     0.27850
H3634       H  0.96022512  0.93774543  0.92485376     0.27850
H3635       H  0.95289872  0.00880776  0.91045674     0.18440
H3636       H  0.86999715  0.91121846  0.85749982     0.18450
C3637       C  0.92602064  0.74015044  0.88697683    -0.07390
C3638       C  0.93882922  0.73451587  0.85846537    -0.18510
C3639       C  0.94235328  0.70873213  0.85493433     0.09810
C3640       C  0.93068011  0.68610138  0.87915862    -0.07310
C3641       C  0.91701437  0.69095869  0.90742871    -0.18550
C3642       C  0.91507707  0.71795993  0.91194071     0.09840
S3643       S  0.96503035  0.70836210  0.82053834    -0.33510
S3644       S  0.89853057  0.72244756  0.94988221    -0.33520
H3645       H  0.92676974  0.74786987  0.96153726     0.27850
H3646       H  0.98342858  0.70046311  0.83978714     0.27850
H3647       H  0.94810966  0.75131131  0.83925735     0.18440
H3648       H  0.90809434  0.67379033  0.92628914     0.18450
C3649       C  0.58013827  0.99291407  0.89055385    -0.07390
C3650       C  0.56708717  0.97973633  0.92111471    -0.18510
C3651       C  0.54100249  0.94968883  0.92281483     0.09810
C3652       C  0.52752905  0.93149388  0.89341103    -0.07310
C3653       C  0.54010569  0.94465989  0.86300765    -0.18550
C3654       C  0.56516811  0.97504520  0.86113101     0.09840
S3655       S  0.52656316  0.93570326  0.96327123    -0.33510
S3656       S  0.57548635  0.98969582  0.82014596    -0.33520
H3657       H  0.57711701  0.51807968  0.82881114     0.27850
H3658       H  0.01406129  0.90408911  0.95468887     0.27850
H3659       H  0.57757901  0.99268364  0.94412971     0.18440
H3660       H  0.52944962  0.93149976  0.84014103     0.18450
C3661       C  0.82675209  0.74338396  0.87319430    -0.07390
C3662       C  0.81695472  0.72256434  0.89928437    -0.18510
C3663       C  0.78693030  0.69667270  0.90000208     0.09810
C3664       C  0.76525784  0.69059421  0.87403380    -0.07310
C3665       C  0.77481477  0.71108173  0.84779338    -0.18550
C3666       C  0.80512932  0.73682899  0.84676393     0.09840
S3667       S  0.77734879  0.67285766  0.93559311    -0.33510
S3668       S  0.81435320  0.76035834  0.81108765    -0.33520
H3669       H  0.84071945  0.75793368  0.80372993     0.27850
H3670       H  0.74624223  0.66566169  0.93636766     0.27850
H3671       H  0.83266932  0.72679917  0.91997640     0.18440
H3672       H  0.75884417  0.70636100  0.82721139     0.18450
C3673       C  0.85781080  0.84742240  0.95649843    -0.07390
C3674       C  0.87382896  0.87874477  0.96630258    -0.18510
C3675       C  0.87249653  0.88829415  0.49857512     0.09810
C3676       C  0.85199551  0.86640632  0.52110275    -0.07310
C3677       C  0.83403264  0.83516658  0.51045896    -0.18550
C3678       C  0.83743034  0.82538404  0.97857784     0.09840
S3679       S  0.90003632  0.92828982  0.50977089    -0.33510
S3680       S  0.81686621  0.78455614  0.96781906    -0.33520
H3681       H  0.84410860  0.78343592  0.96190712     0.27850
H3682       H  0.90786838  0.92145017  0.54055629     0.27850
H3683       H  0.89060133  0.89548096  0.94984692     0.18440
H3684       H  0.81782689  0.81830612  0.52712787     0.18450
C3685       C  0.86855558  0.88399659  0.72161053    -0.07390
C3686       C  0.88787765  0.87108823  0.72317758    -0.18510
C3687       C  0.89056824  0.85780903  0.75212466     0.09810
C3688       C  0.87525490  0.85915138  0.78109216    -0.07310
C3689       C  0.85548345  0.87163720  0.77933868    -0.18550
C3690       C  0.85137116  0.88331404  0.74979403     0.09840
S3691       S  0.91209673  0.83762427  0.74967086    -0.33510
S3692       S  0.82574796  0.89916398  0.75046897    -0.33520
H3693       H  0.80922864  0.88328014  0.72133737     0.27850
H3694       H  0.89514848  0.81610052  0.77377201     0.27850
H3695       H  0.89997404  0.87018969  0.70122882     0.18560
H3696       H  0.84374403  0.87304845  0.80134989     0.18450
loop_ 
_geom_bond_atom_site_label_1 
_geom_bond_atom_site_label_2 
_geom_bond_distance 
_geom_bond_site_symmetry_2 
_ccdc_geom_bond_type 
O1            C9   1.264       .  A
O1          Co21   1.877       .  S
O2           C10   1.250       .  A
O2          Co22   1.943       .  S
O3           C11   1.262       .  A
O3          Co23   2.018       .  S
O4           C12   1.279       .  A
O4          Co24   2.046       .  S
O5           C11   1.249       .  A
O5          Co22   1.931       .  S
O6           C12   1.268       .  A
O6          Co21   1.988       .  S
O7           C10   1.274       .  A
O7          Co24   2.042       .  S
O8            C9   1.293       .  A
O8          Co23   2.111       .  S
C9          C394   1.461       .  S
C10         C367   1.485       .  S
C11         C439   1.450       .  S
C12        C2266   1.499       .  S
O13          C26   1.262       .  A
O13         Co21   1.989       .  S
O14          C27   1.279       .  A
O14         Co22   2.031       .  S
O15          C28   1.271       .  A
O15         Co23   1.898       .  S
O16          C29   1.262       .  A
O16         Co24   1.949       .  S
O17          C29   1.268       .  A
O17         Co22   2.009       .  S
O18          C28   1.297       .  A
O18         Co21   2.111       .  S
O19          C26   1.260       .  A
O19         Co24   1.987       .  S
O20          C27   1.273       .  A
O20         Co23   1.990       .  S
Co21         O25   1.983       .  S
Co22         O25   2.014       .  S
Co23         O25   2.028       .  S
Co24         O25   2.049       .  S
C26         C382   1.492       .  S
C27         C427   1.513       .  S
C28         C454   1.483       .  S
C29         C403   1.479       .  S
O30          C38   1.256       .  A
O30         Co50   1.976       .  S
O31          C39   1.246       .  A
O31         Co51   1.945       .  S
O32          C40   1.255       .  A
O32       Co1900   1.982       .  S
O33          C41   1.275       .  A
O33         Co53   2.051       .  S
O34        C1888   1.242       .  A
O34         Co51   1.958       .  S
O35          C41   1.254       .  A
O35         Co50   1.931       .  S
O36          C39   1.252       .  A
O36         Co53   1.993       .  S
O37          C38   1.271       .  A
O37         Co52   2.036       .  S
C38         C307   1.486       .  S
C39        C1315   1.485   1_545  S
C40        O1882   1.242       .  A
C40         C343   1.470   1_655  S
C41         C331   1.474       .  S
O42          C55   1.269       .  A
O42         Co50   2.017       .  S
O43          C56   1.300       .  A
O43         Co51   2.072       .  S
O44          C57   1.256       .  A
O44         Co52   1.971       .  S
O45          C58   1.300       .  A
O45         Co53   2.094       .  S
O46          C58   1.264       .  A
O46         Co51   1.877       .  S
O47          C57   1.266       .  A
O47         Co50   2.006       .  S
O48          C55   1.257       .  A
O48         Co53   1.956       .  S
O49          C56   1.272       .  A
O49         Co52   1.895       .  S
Co50         O54   2.054       .  S
Co51         O54   2.034       .  S
Co52       O1880   1.982       .  S
Co52         O54   1.938       .  S
Co53         O54   2.144       .  S
C55         C355   1.476       .  S
C56         C295   1.477       .  S
C57         C406   1.471       .  S
C58         C322   1.480       .  S
O59          C67   1.249       .  A
O59         Co79   2.045       .  S
O60          C68   1.256       .  A
O60         Co80   1.977       .  S
O61          C69   1.278       .  A
O61         Co81   2.016       .  S
O62          C70   1.258       .  A
O62         Co82   1.946       .  S
O63          C69   1.274       .  A
O63         Co80   1.999       .  S
O64          C70   1.282       .  A
O64         Co79   2.047       .  S
O65          C68   1.253       .  A
O65         Co82   1.952       .  S
O66          C67   1.232       .  A
O66         Co81   1.984       .  S
C67        C2134   1.504   1_455  S
C68         C223   1.461       .  S
C69        C1171   1.505       .  S
C70         C370   1.476       .  S
O71          C84   1.278       .  A
O71         Co79   2.008       .  S
O72          C85   1.250       .  A
O72         Co80   1.939       .  S
O73          C86   1.293       .  A
O73         Co81   1.969       .  S
O74          C87   1.275       .  A
O74         Co82   2.030       .  S
O75          C87   1.263       .  A
O75         Co80   1.968       .  S
O76          C86   1.302       .  A
O76         Co79   1.996       .  S
O77          C84   1.266       .  A
O77         Co82   1.987       .  S
O78          C85   1.266       .  A
O78         Co81   2.019       .  S
Co79         O83   2.108       .  S
Co80         O83   2.059       .  S
Co81         O83   1.983       .  S
Co82         O83   2.014       .  S
C84         C262   1.507       .  S
C85         C235   1.503       .  S
C86         C379   1.492       .  S
C87         C271   1.474       .  S
O88          C96   1.241       .  A
O88        Co108   1.943       .  S
O89          C97   1.271       .  A
O89        Co109   1.991       .  S
O90          C98   1.299       .  A
O90        Co110   2.111       .  S
O91          C99   1.272       .  A
O91        Co111   2.019       .  S
O92          C98   1.261       .  A
O92        Co109   1.902       .  S
O93          C99   1.248       .  A
O93        Co108   1.923       .  S
O94          C97   1.279       .  A
O94        Co111   2.045       .  S
O95          C96   1.258       .  A
O95        Co110   2.022       .  S
C96         C202   1.467       .  S
C97        C1339   1.517   1_545  S
C98         C238   1.484       .  S
C99         C346   1.475       .  S
O100        C113   1.272       .  A
O100       Co108   2.027       .  S
O101        C114   1.295       .  A
O101       Co109   2.108       .  S
O102        C115   1.265       .  A
O102       Co110   1.976       .  S
O103        C116   1.255       .  A
O103       Co111   1.966       .  S
O104        C116   1.257       .  A
O104       Co109   1.961       .  S
O105        C115   1.284       .  A
O105       Co108   2.062       .  S
O106        C113   1.259       .  A
O106       Co111   1.967       .  S
O107        C114   1.264       .  A
O107       Co110   1.888       .  S
Co108       O112   2.016       .  S
Co109       O112   2.007       .  S
Co110       O112   2.026       .  S
Co111       O112   2.045       .  S
C113        C214   1.505       .  S
C114        C358   1.485       .  S
C115        C430   1.501       .  S
C116        C226   1.463       .  S
O117        C125   1.270       .  A
O117       Co137   1.850       .  S
O118        C126   1.275       .  A
O118       Co138   1.898       .  S
O119        C127   1.266       .  A
O119       Co139   2.026       .  S
O120        C128   1.267       .  A
O120       Co140   2.019       .  S
O121        C127   1.253       .  A
O121       Co138   1.958       .  S
O122        C128   1.263       .  A
O122       Co137   1.980       .  S
O123        C126   1.302       .  A
O123       Co140   2.101       .  S
O124        C125   1.300       .  A
O124       Co139   2.092       .  S
C125       C2023   1.446   1_455  S
C126        C211   1.500       .  S
C127        C298   1.497       .  S
C128        C250   1.490       .  S
O129        C142   1.269       .  A
O129       Co137   2.005       .  S
O130        C143   1.285       .  A
O130       Co138   2.064       .  S
O131        C144   1.247       .  A
O131       Co139   1.956       .  S
O132        C145   1.249       .  A
O132       Co140   1.952       .  S
O133        C145   1.245       .  A
O133       Co138   1.960       .  S
O134        C144   1.256       .  A
O134       Co137   2.015       .  S
O135        C142   1.256       .  A
O135       Co140   1.965       .  S
O136        C143   1.253       .  A
O136       Co139   1.948       .  S
Co137       O141   1.979       .  S
Co138       O141   1.980       .  S
Co139       O141   2.112       .  S
Co140       O141   2.114       .  S
C142        C199   1.486       .  S
C143        C259   1.498       .  S
C144        C310   1.488       .  S
C145        C190   1.461       .  S
O146        C154   1.269       .  A
O146       Co166   1.980       .  S
O147        C155   1.253       .  A
O147       Co167   1.952       .  S
O148        C156   1.270       .  A
O148       Co168   2.035       .  S
O149        C157   1.289       .  A
O149       Co169   2.094       .  S
O150        C156   1.242       .  A
O150       Co167   1.915       .  S
O151        C157   1.262       .  A
O151       Co166   1.867       .  S
O152        C155   1.270       .  A
O152       Co169   2.031       .  S
O153        C154   1.278       .  A
O153       Co168   2.036       .  S
C154        C283   1.505       .  S
C155        C319   1.471       .  S
C156        C442   1.470       .  S
C157       C1102   1.442       .  S
O158        C171   1.298       .  A
O158       Co166   2.109       .  S
O159        C172   1.274       .  A
O159       Co167   2.025       .  S
O160        C173   1.249       .  A
O160       Co168   1.969       .  S
O161        C174   1.270       .  A
O161       Co169   1.989       .  S
O162        C174   1.270       .  A
O162       Co167   2.001       .  S
O163        C173   1.263       .  A
O163       Co166   2.019       .  S
O164        C171   1.272       .  A
O164       Co169   1.889       .  S
O165        C172   1.251       .  A
O165       Co168   1.903       .  S
Co166       O170   1.981       .  S
Co167       O170   2.011       .  S
Co168       O170   2.047       .  S
Co169       O170   2.009       .  S
C171        C334   1.484       .  S
C172        C187   1.472       .  S
C173        C451   1.476       .  S
C174        C274   1.482       .  S
C175       C1973   1.446       .  S
C175        C176   1.401       .  A
C175        C180   1.403       .  A
C176        C177   1.392       .  A
C176        H185   1.085       .  S
C177        C178   1.407       .  A
C177        S181   1.806       .  S
C178       C1081   1.443   1_545  S
C178        C179   1.399       .  A
C179        C180   1.388       .  A
C179        H186   1.084       .  S
C180        S182   1.798       .  S
S181       H1108   1.403   1_545  S
S182        H183   1.403       .  S
H184       S1105   1.403       .  S
C187        C188   1.415       .  A
C187        C192   1.408       .  A
C188        C189   1.385       .  A
C188        H197   1.084       .  S
C189        C190   1.400       .  A
C189        S193   1.804       .  S
C190        C191   1.410       .  A
C191        C192   1.392       .  A
C191        H198   1.084       .  S
C192        S194   1.800       .  S
S193        H196   1.408       .  S
S194        H195   1.408       .  S
C199        C200   1.403       .  A
C199        C204   1.425       .  A
C200        C201   1.389       .  A
C200        H209   1.083       .  S
C201        C202   1.412       .  A
C201        S205   1.801       .  S
C202        C203   1.398       .  A
C203        C204   1.403       .  A
C203        H210   1.084       .  S
C204        S206   1.801       .  S
S205        H208   1.399       .  S
S206        H207   1.408       .  S
C211        C212   1.406       .  A
C211        C216   1.416   1_554  A
C212        C213   1.402       .  A
C212        H221   1.084       .  S
C213        C676   1.422   1_554  A
C213        S217   1.802       .  S
C214        C215   1.411       .  A
C214        C675   1.422       .  A
C215        C678   1.408       .  A
C215        H222   1.083       .  S
C216        C677   1.408       .  A
C216        S680   1.801       .  S
S217        H682   1.407   1_554  S
S218        C678   1.801       .  S
S218        H681   1.408       .  S
H219        S680   1.408   1_554  S
H220        S679   1.407       .  S
C223       C1148   1.405       .  A
C223        C690   1.410   1_554  A
C224        C225   1.391   1_554  A
C224       C1147   1.405   1_545  A
C224        H233   1.084       .  S
C225        C688   1.409       .  A
C225        S229   1.803       .  S
C226        C687   1.409       .  A
C226       C1151   1.403   1_545  A
C227        C228   1.385       .  A
C227       C1150   1.403       .  A
C227        H234   1.084       .  S
C228        C685   1.410       .  A
C228        S230   1.800       .  S
S229        H232   1.408       .  S
S230        H693   1.408       .  S
H231        S692   1.408   1_554  S
C235        C240   1.414       .  A
C235       C1160   1.418       .  A
C236        C237   1.393       .  A
C236       C1159   1.418   1_545  A
C236        H245   1.081       .  S
C237        C238   1.403       .  A
C237        S241   1.812       .  S
C238        C239   1.413   1_545  A
C239       C1164   1.413       .  A
C239       H1170   1.083       .  S
C240       C1163   1.413       .  A
C240        S242   1.799       .  S
S241        H244   1.406       .  S
S242        H243   1.407       .  S
H246       C1163   1.083       .  S
C247        C993   1.505       .  S
C247        C248   1.414       .  A
C247        C252   1.419       .  A
C248        C249   1.410       .  A
C248        H257   1.083       .  S
C249        C250   1.409       .  A
C249        S253   1.800       .  S
C250        C251   1.405       .  A
C251        C252   1.404       .  A
C251        H258   1.082       .  S
C252        S254   1.801       .  S
S253        H256   1.406       .  S
S254        H255   1.408       .  S
C259        C260   1.419       .  A
C259        C264   1.404       .  A
C260        C261   1.413       .  A
C260        H269   1.084       .  S
C261        C262   1.414       .  A
C261        S265   1.805       .  S
C262        C263   1.419       .  A
C263        C264   1.401       .  A
C263        H270   1.079       .  S
C264        S266   1.803       .  S
S265        H268   1.399       .  S
S266        H267   1.407       .  S
C271        C272   1.403       .  A
C271        C276   1.407       .  A
C272        C273   1.406       .  A
C272        H281   1.081       .  S
C273        C274   1.414       .  A
C273        S277   1.798       .  S
C274        C275   1.407       .  A
C275        C276   1.396       .  A
C275        H282   1.084       .  S
C276        S278   1.802       .  S
S277        H280   1.402       .  S
S278        H279   1.405       .  S
C283        C284   1.409       .  A
C283        C288   1.418       .  A
C284        C285   1.406       .  A
C284        H293   1.083       .  S
C285        C286   1.419       .  A
C285       S2137   1.796       .  S
C286       C1915   1.504       .  S
C286        C287   1.409       .  A
C287        C288   1.405       .  A
C287        H294   1.082       .  S
C288        S290   1.801       .  S
S289       C2133   1.796   1_455  S
S289        H292   1.407       .  S
S290        H291   1.406       .  S
C295       C2144   1.400       .  A
C295        C762   1.407       .  A
C296       C2143   1.400   1_455  A
C296        C759   1.400       .  A
C296        H305   1.083       .  S
C297        C298   1.421       .  A
C297        C758   1.400   1_554  A
C297        S763   1.812       .  S
C298        C299   1.414   1_455  A
C299       C2148   1.407       .  A
C299       H2154   1.083       .  S
C300        C757   1.407   1_554  A
C300       C2147   1.407       .  A
C300        S302   1.804       .  S
S301        C759   1.812       .  S
S301        H766   1.407       .  S
S302        H765   1.406   1_554  S
H303        S764   1.406       .  S
H304        S763   1.407   1_556  S
H306       C2147   1.083       .  S
C307        C312   1.419       .  A
C307       C2156   1.410       .  A
C308        C309   1.413       .  A
C308       C2155   1.410       .  A
C308        H317   1.083       .  S
C309        C310   1.413       .  A
C309        S313   1.802       .  S
C310       C2159   1.402       .  A
C311        C312   1.396       .  A
C311       C2158   1.402       .  A
C311        H318   1.085       .  S
C312        S314   1.811       .  S
S313        H316   1.407       .  S
S314        H315   1.391       .  S
C319       C1244   1.400       .  A
C319        C786   1.414       .  A
C320        C321   1.402       .  A
C320       C1243   1.400       .  A
C320        H329   1.084       .  S
C321        C784   1.417   1_554  A
C321        S325   1.798       .  S
C322        C783   1.417       .  A
C322       C1247   1.401       .  A
C323        C324   1.397       .  A
C323       C1246   1.401       .  A
C323        H330   1.085       .  S
C324        C781   1.414       .  A
C324        S326   1.802       .  S
S325        H328   1.403       .  S
S326        H789   1.400       .  S
H327        S788   1.400       .  S
C331        C332   1.399       .  A
C331        C336   1.412       .  A
C332        C333   1.389   1_545  A
C332        H341   1.085       .  S
C333       C1258   1.417       .  A
C333       S1261   1.798       .  S
C334       C1257   1.417       .  A
C334       C1259   1.409       .  A
C335        C336   1.406   1_565  A
C335       C1258   1.409       .  A
C335       H1266   1.084       .  S
C336        S338   1.801       .  S
S337       C1257   1.798       .  S
S337        H340   1.398       .  S
S338        H339   1.404       .  S
H342       C1259   1.084       .  S
C343        C344   1.397       .  A
C343        C348   1.420       .  A
C344        C345   1.384       .  A
C344        H353   1.084       .  S
C345        C346   1.422       .  A
C345        S349   1.807       .  S
C346        C347   1.402       .  A
C347        C348   1.397       .  A
C347        H354   1.084       .  S
C348        S350   1.803       .  S
S349        H352   1.407       .  S
S350        H351   1.398       .  S
C355        C356   1.405       .  A
C355        C360   1.409       .  A
C356        C357   1.398       .  A
C356        H365   1.084       .  S
C357        C358   1.416       .  A
C357        S361   1.802       .  S
C358        C359   1.409       .  A
C359        C360   1.396       .  A
C359        H366   1.083       .  S
C360        S362   1.802       .  S
S361        H364   1.408       .  S
S362        H363   1.401       .  S
C367       C2216   1.396       .  A
C367        C834   1.424       .  A
C368        C369   1.396       .  A
C368       C2215   1.396   1_455  A
C368        H377   1.084       .  S
C369        C832   1.420       .  A
C369        S373   1.802       .  S
C370        C371   1.397   1_455  A
C370        C831   1.420       .  A
C371       C2220   1.407       .  A
C371       H2226   1.081       .  S
C372        C829   1.424   1_554  A
C372       C2219   1.407       .  A
C372        S374   1.809       .  S
S373        H838   1.392       .  S
S374        H837   1.406       .  S
H375        S836   1.406       .  S
H376        S835   1.392   1_554  S
H378       C2219   1.081       .  S
C379        C384   1.420       .  A
C379       C2228   1.408       .  A
C380        C381   1.404       .  A
C380       C2227   1.408       .  A
C380        H389   1.083       .  S
C381        C382   1.418       .  A
C381        S385   1.802       .  S
C382       C2231   1.405       .  A
C383        C384   1.393   1_655  A
C383       C2230   1.405       .  A
C383        H390   1.083       .  S
C384        S386   1.804       .  S
S385        H388   1.406       .  S
S386        H387   1.408       .  S
C391        C963   1.485       .  S
C391        C392   1.411       .  A
C391        C396   1.419       .  A
C392        C393   1.387       .  A
C392        H401   1.084       .  S
C393        C394   1.403       .  A
C393        S397   1.802       .  S
C394        C395   1.401       .  A
C395        C396   1.401       .  A
C395        H402   1.084       .  S
C396        S398   1.798       .  S
S397        H400   1.406       .  S
S398       H1323   1.398       .  S
H399       S1322   1.398       .  S
C403        C404   1.403       .  A
C403        C408   1.418       .  A
C404        C405   1.383       .  A
C404        H413   1.084       .  S
C405        C406   1.410       .  A
C405        S409   1.796       .  S
C406        C407   1.404       .  A
C407        C408   1.401       .  A
C407        H414   1.084       .  S
C408        S410   1.799       .  S
S409        H412   1.405       .  S
S410        H411   1.408       .  S
C415       C1021   1.517       .  S
C415        C416   1.417       .  A
C415        C420   1.422       .  A
C416        C417   1.414       .  A
C416        H425   1.083       .  S
C417        C418   1.413       .  A
C417        S421   1.803       .  S
C418       C1860   1.499   1_455  S
C418        C419   1.406       .  A
C419        C420   1.407       .  A
C419        H426   1.083       .  S
C420        S422   1.801       .  S
S421       H2272   1.404       .  S
S422       H1347   1.407       .  S
H423       S1346   1.407   1_545  S
H424       S2269   1.404       .  S
C427        C428   1.412       .  A
C427        C432   1.423       .  A
C428        C429   1.407       .  A
C428        H437   1.084       .  S
C429        C430   1.415       .  A
C429        S433   1.803       .  S
C430        C431   1.407       .  A
C431        C432   1.414       .  A
C431        H438   1.084       .  S
C432        S434   1.799       .  S
S433        H436   1.405       .  S
S434        H435   1.408       .  S
C439        C440   1.394       .  A
C439        C444   1.410       .  A
C440        C903   1.384       .  A
C440        H449   1.086       .  S
C441        C442   1.421   1_556  A
C441        C902   1.384       .  A
C441        S445   1.807   1_556  S
C442        C443   1.404       .  A
C443        C906   1.401   1_554  A
C443        H450   1.083       .  S
C444        C905   1.401       .  A
C444        S446   1.798       .  S
S445        H448   1.404       .  S
S446        H447   1.405       .  S
C451        C452   1.400       .  A
C451        C456   1.416       .  A
C452        C453   1.400       .  A
C452        H461   1.084       .  S
C453        C454   1.415       .  A
C453        S457   1.798       .  S
C454        C455   1.404       .  A
C455        C456   1.402       .  A
C455        H462   1.084       .  S
C456        S458   1.803       .  S
S457        H460   1.407       .  S
S458        H459   1.403       .  S
O463        C471   1.264       .  A
O463       Co483   1.877       .  S
O464        C472   1.250       .  A
O464       Co484   1.943       .  S
O465        C473   1.262       .  A
O465       Co485   2.018       .  S
O466        C474   1.279       .  A
O466       Co486   2.046       .  S
O467        C473   1.249       .  A
O467       Co484   1.931       .  S
O468        C474   1.268       .  A
O468       Co483   1.988       .  S
O469        C472   1.274       .  A
O469       Co486   2.042       .  S
O470        C471   1.293       .  A
O470       Co485   2.111       .  S
C471        C856   1.461       .  S
C472        C829   1.485       .  S
C473        C901   1.450       .  S
C474       C2728   1.499       .  S
O475        C488   1.262       .  A
O475       Co483   1.989       .  S
O476        C489   1.279       .  A
O476       Co484   2.031       .  S
O477        C490   1.271       .  A
O477       Co485   1.898       .  S
O478        C491   1.262       .  A
O478       Co486   1.949       .  S
O479        C491   1.268       .  A
O479       Co484   2.009       .  S
O480        C490   1.297       .  A
O480       Co483   2.111       .  S
O481        C488   1.260       .  A
O481       Co486   1.987       .  S
O482        C489   1.273       .  A
O482       Co485   1.990       .  S
Co483       O487   1.983       .  S
Co484       O487   2.014       .  S
Co485       O487   2.028       .  S
Co486       O487   2.049       .  S
C488        C844   1.492       .  S
C489        C889   1.513       .  S
C490        C916   1.483       .  S
C491        C865   1.479       .  S
O492        C500   1.256       .  A
O492       Co512   1.976       .  S
O493        C501   1.246       .  A
O493       Co513   1.945       .  S
O494        C502   1.255       .  A
O494      Co2362   1.982       .  S
O495        C503   1.275       .  A
O495       Co515   2.051       .  S
O496       C2350   1.242       .  A
O496       Co513   1.958       .  S
O497        C503   1.254       .  A
O497       Co512   1.931       .  S
O498        C501   1.252       .  A
O498       Co515   1.993       .  S
O499        C500   1.271       .  A
O499       Co514   2.036       .  S
C500        C769   1.486       .  S
C501       C1777   1.485   1_545  S
C502       O2344   1.242       .  A
C502        C805   1.470   1_655  S
C503        C793   1.474       .  S
O504        C517   1.269       .  A
O504       Co512   2.017       .  S
O505        C518   1.300       .  A
O505       Co513   2.072       .  S
O506        C519   1.256       .  A
O506       Co514   1.971       .  S
O507        C520   1.300       .  A
O507       Co515   2.094       .  S
O508        C520   1.264       .  A
O508       Co513   1.877       .  S
O509        C519   1.266       .  A
O509       Co512   2.006       .  S
O510        C517   1.257       .  A
O510       Co515   1.956       .  S
O511        C518   1.272       .  A
O511       Co514   1.895       .  S
Co512       O516   2.054       .  S
Co513       O516   2.034       .  S
Co514      O2342   1.982       .  S
Co514       O516   1.938       .  S
Co515       O516   2.144       .  S
C517        C817   1.476       .  S
C518        C757   1.477       .  S
C519        C868   1.471       .  S
C520        C784   1.480       .  S
O521        C529   1.249       .  A
O521       Co541   2.045       .  S
O522        C530   1.256       .  A
O522       Co542   1.977       .  S
O523        C531   1.278       .  A
O523       Co543   2.016       .  S
O524        C532   1.258       .  A
O524       Co544   1.946       .  S
O525        C531   1.274       .  A
O525       Co542   1.999       .  S
O526        C532   1.282       .  A
O526       Co541   2.047       .  S
O527        C530   1.253       .  A
O527       Co544   1.952       .  S
O528        C529   1.232       .  A
O528       Co543   1.984       .  S
C529       C2596   1.504   1_455  S
C530        C685   1.461       .  S
C531       C1633   1.505       .  S
C532        C832   1.476       .  S
O533        C546   1.278       .  A
O533       Co541   2.008       .  S
O534        C547   1.250       .  A
O534       Co542   1.939       .  S
O535        C548   1.293       .  A
O535       Co543   1.969       .  S
O536        C549   1.275       .  A
O536       Co544   2.030       .  S
O537        C549   1.263       .  A
O537       Co542   1.968       .  S
O538        C548   1.302       .  A
O538       Co541   1.996       .  S
O539        C546   1.266       .  A
O539       Co544   1.987       .  S
O540        C547   1.266       .  A
O540       Co543   2.019       .  S
Co541       O545   2.108       .  S
Co542       O545   2.059       .  S
Co543       O545   1.983       .  S
Co544       O545   2.014       .  S
C546        C724   1.507       .  S
C547        C697   1.503       .  S
C548        C841   1.492       .  S
C549        C733   1.474       .  S
O550        C558   1.241       .  A
O550       Co570   1.943       .  S
O551        C559   1.271       .  A
O551       Co571   1.991       .  S
O552        C560   1.299       .  A
O552       Co572   2.111       .  S
O553        C561   1.272       .  A
O553       Co573   2.019       .  S
O554        C560   1.261       .  A
O554       Co571   1.902       .  S
O555        C561   1.248       .  A
O555       Co570   1.923       .  S
O556        C559   1.279       .  A
O556       Co573   2.045       .  S
O557        C558   1.258       .  A
O557       Co572   2.022       .  S
C558        C664   1.467       .  S
C559       C1801   1.517   1_545  S
C560        C700   1.484       .  S
C561        C808   1.475       .  S
O562        C575   1.272       .  A
O562       Co570   2.027       .  S
O563        C576   1.295       .  A
O563       Co571   2.108       .  S
O564        C577   1.265       .  A
O564       Co572   1.976       .  S
O565        C578   1.255       .  A
O565       Co573   1.966       .  S
O566        C578   1.257       .  A
O566       Co571   1.961       .  S
O567        C577   1.284       .  A
O567       Co570   2.062       .  S
O568        C575   1.259       .  A
O568       Co573   1.967       .  S
O569        C576   1.264       .  A
O569       Co572   1.888       .  S
Co570       O574   2.016       .  S
Co571       O574   2.007       .  S
Co572       O574   2.026       .  S
Co573       O574   2.045       .  S
C575        C676   1.505       .  S
C576        C820   1.485       .  S
C577        C892   1.501       .  S
C578        C688   1.463       .  S
O579        C587   1.270       .  A
O579       Co599   1.850       .  S
O580        C588   1.275       .  A
O580       Co600   1.898       .  S
O581        C589   1.266       .  A
O581       Co601   2.026       .  S
O582        C590   1.267       .  A
O582       Co602   2.019       .  S
O583        C589   1.253       .  A
O583       Co600   1.958       .  S
O584        C590   1.263       .  A
O584       Co599   1.980       .  S
O585        C588   1.302       .  A
O585       Co602   2.101       .  S
O586        C587   1.300       .  A
O586       Co601   2.092       .  S
C587       C2485   1.446   1_455  S
C588        C673   1.500       .  S
C589        C760   1.497       .  S
C590        C712   1.490       .  S
O591        C604   1.269       .  A
O591       Co599   2.005       .  S
O592        C605   1.285       .  A
O592       Co600   2.064       .  S
O593        C606   1.247       .  A
O593       Co601   1.956       .  S
O594        C607   1.249       .  A
O594       Co602   1.952       .  S
O595        C607   1.245       .  A
O595       Co600   1.960       .  S
O596        C606   1.256       .  A
O596       Co599   2.015       .  S
O597        C604   1.256       .  A
O597       Co602   1.965       .  S
O598        C605   1.253       .  A
O598       Co601   1.948       .  S
Co599       O603   1.979       .  S
Co600       O603   1.980       .  S
Co601       O603   2.113       .  S
Co602       O603   2.114       .  S
C604        C661   1.486       .  S
C605        C721   1.498       .  S
C606        C772   1.488       .  S
C607        C652   1.461       .  S
O608        C616   1.269       .  A
O608       Co628   1.980       .  S
O609        C617   1.253       .  A
O609       Co629   1.952       .  S
O610        C618   1.270       .  A
O610       Co630   2.035       .  S
O611        C619   1.289       .  A
O611       Co631   2.094       .  S
O612        C618   1.242       .  A
O612       Co629   1.915       .  S
O613        C619   1.262       .  A
O613       Co628   1.867       .  S
O614        C617   1.270       .  A
O614       Co631   2.031       .  S
O615        C616   1.278       .  A
O615       Co630   2.036       .  S
C616        C745   1.505       .  S
C617        C781   1.471       .  S
C618        C904   1.470       .  S
C619       C1564   1.442       .  S
O620        C633   1.298       .  A
O620       Co628   2.109       .  S
O621        C634   1.274       .  A
O621       Co629   2.025       .  S
O622        C635   1.249       .  A
O622       Co630   1.969       .  S
O623        C636   1.270       .  A
O623       Co631   1.989       .  S
O624        C636   1.270       .  A
O624       Co629   2.001       .  S
O625        C635   1.263       .  A
O625       Co628   2.019       .  S
O626        C633   1.272       .  A
O626       Co631   1.889       .  S
O627        C634   1.251       .  A
O627       Co630   1.903       .  S
Co628       O632   1.981       .  S
Co629       O632   2.011       .  S
Co630       O632   2.047       .  S
Co631       O632   2.009       .  S
C633        C796   1.484       .  S
C634        C649   1.472       .  S
C635        C913   1.476       .  S
C636        C736   1.482       .  S
C637       C2435   1.446       .  S
C637        C638   1.401       .  A
C637        C642   1.403       .  A
C638        C639   1.392       .  A
C638        H647   1.085       .  S
C639        C640   1.407       .  A
C639        S643   1.806       .  S
C640       C1543   1.442   1_545  S
C640        C641   1.399       .  A
C641        C642   1.388       .  A
C641        H648   1.084       .  S
C642        S644   1.798       .  S
S643       H1570   1.403   1_545  S
S644        H645   1.403       .  S
H646       S1567   1.403       .  S
C649        C650   1.415       .  A
C649        C654   1.408       .  A
C650        C651   1.385       .  A
C650        H659   1.084       .  S
C651        C652   1.400       .  A
C651        S655   1.804       .  S
C652        C653   1.410       .  A
C653        C654   1.392       .  A
C653        H660   1.084       .  S
C654        S656   1.800       .  S
S655        H658   1.408       .  S
S656        H657   1.408       .  S
C661        C662   1.403       .  A
C661        C666   1.425       .  A
C662        C663   1.389       .  A
C662        H671   1.083       .  S
C663        C664   1.412       .  A
C663        S667   1.801       .  S
C664        C665   1.398       .  A
C665        C666   1.403       .  A
C665        H672   1.084       .  S
C666        S668   1.801       .  S
S667        H670   1.399       .  S
S668        H669   1.408       .  S
C673        C674   1.406       .  A
C673        C678   1.416       .  A
C674        C675   1.402       .  A
C674        H683   1.084       .  S
C675        S679   1.802       .  S
C676        C677   1.411       .  A
C677        H684   1.083       .  S
C685       C1610   1.405       .  A
C686       C1609   1.405   1_545  A
C686        C687   1.391       .  A
C686        H695   1.084       .  S
C687        S691   1.803       .  S
C688       C1613   1.403   1_545  A
C689       C1612   1.403       .  A
C689        C690   1.385       .  A
C689        H696   1.084       .  S
C690        S692   1.800       .  S
S691        H694   1.408       .  S
C697       C1622   1.418       .  A
C697        C702   1.414       .  A
C698       C1621   1.418   1_545  A
C698        C699   1.393       .  A
C698        H707   1.081       .  S
C699        C700   1.403       .  A
C699        S703   1.812       .  S
C700        C701   1.413   1_545  A
C701       C1626   1.413       .  A
C701       H1632   1.083       .  S
C702       C1625   1.413       .  A
C702        S704   1.799       .  S
S703        H706   1.406       .  S
S704        H705   1.407       .  S
H708       C1625   1.083       .  S
C709       C1455   1.505       .  S
C709        C710   1.414       .  A
C709        C714   1.419       .  A
C710        C711   1.410       .  A
C710        H719   1.083       .  S
C711        C712   1.409       .  A
C711        S715   1.800       .  S
C712        C713   1.405       .  A
C713        C714   1.404       .  A
C713        H720   1.082       .  S
C714        S716   1.801       .  S
S715        H718   1.406       .  S
S716        H717   1.408       .  S
C721        C722   1.419       .  A
C721        C726   1.404       .  A
C722        C723   1.413       .  A
C722        H731   1.084       .  S
C723        C724   1.414       .  A
C723        S727   1.805       .  S
C724        C725   1.419       .  A
C725        C726   1.401       .  A
C725        H732   1.079       .  S
C726        S728   1.803       .  S
S727        H730   1.399       .  S
S728        H729   1.407       .  S
C733        C734   1.403       .  A
C733        C738   1.407       .  A
C734        C735   1.406       .  A
C734        H743   1.081       .  S
C735        C736   1.414       .  A
C735        S739   1.798       .  S
C736        C737   1.407       .  A
C737        C738   1.396       .  A
C737        H744   1.084       .  S
C738        S740   1.802       .  S
S739        H742   1.402       .  S
S740        H741   1.405       .  S
C745        C746   1.409       .  A
C745        C750   1.418       .  A
C746        C747   1.406       .  A
C746        H755   1.083       .  S
C747        C748   1.419       .  A
C747       S2599   1.796       .  S
C748       C2377   1.504       .  S
C748        C749   1.409       .  A
C749        C750   1.405       .  A
C749        H756   1.082       .  S
C750        S752   1.801       .  S
S751       C2595   1.796   1_455  S
S751        H754   1.407       .  S
S752        H753   1.406       .  S
C757       C2606   1.400       .  A
C758       C2605   1.400   1_455  A
C758        H767   1.083       .  S
C759        C760   1.421       .  A
C760        C761   1.414   1_455  A
C761       C2610   1.407       .  A
C761       H2616   1.083       .  S
C762       C2609   1.407       .  A
C762        S764   1.804       .  S
H768       C2609   1.083       .  S
C769       C2618   1.410       .  A
C769        C774   1.419       .  A
C770       C2617   1.410       .  A
C770        C771   1.413       .  A
C770        H779   1.083       .  S
C771        C772   1.413       .  A
C771        S775   1.802       .  S
C772       C2621   1.402       .  A
C773       C2620   1.402       .  A
C773        C774   1.396       .  A
C773        H780   1.085       .  S
C774        S776   1.811       .  S
S775        H778   1.407       .  S
S776        H777   1.391       .  S
C781       C1706   1.400       .  A
C782       C1705   1.400       .  A
C782        C783   1.402       .  A
C782        H791   1.084       .  S
C783        S787   1.798       .  S
C784       C1709   1.401       .  A
C785       C1708   1.401       .  A
C785        C786   1.397   1_556  A
C785        H792   1.085       .  S
C786        S788   1.802       .  S
S787        H790   1.403       .  S
C793        C794   1.399       .  A
C793        C798   1.412       .  A
C794        C795   1.389   1_545  A
C794        H803   1.085       .  S
C795       C1720   1.417       .  A
C795       S1723   1.798       .  S
C796       C1719   1.417       .  A
C796       C1721   1.409       .  A
C797       C1720   1.409       .  A
C797        C798   1.406   1_565  A
C797       H1728   1.084       .  S
C798        S800   1.801       .  S
S799       C1719   1.798       .  S
S799        H802   1.398       .  S
S800        H801   1.404       .  S
H804       C1721   1.084       .  S
C805        C806   1.397       .  A
C805        C810   1.420       .  A
C806        C807   1.384       .  A
C806        H815   1.084       .  S
C807        C808   1.422       .  A
C807        S811   1.807       .  S
C808        C809   1.402       .  A
C809        C810   1.397       .  A
C809        H816   1.084       .  S
C810        S812   1.803       .  S
S811        H814   1.407       .  S
S812        H813   1.398       .  S
C817        C818   1.405       .  A
C817        C822   1.409       .  A
C818        C819   1.398       .  A
C818        H827   1.084       .  S
C819        C820   1.416       .  A
C819        S823   1.802       .  S
C820        C821   1.409       .  A
C821        C822   1.396       .  A
C821        H828   1.083       .  S
C822        S824   1.802       .  S
S823        H826   1.408       .  S
S824        H825   1.401       .  S
C829       C2678   1.396       .  A
C830       C2677   1.396   1_455  A
C830        C831   1.396   1_556  A
C830        H839   1.084       .  S
C831        S835   1.802   1_554  S
C832        C833   1.397   1_455  A
C833       C2682   1.407       .  A
C833       H2688   1.081       .  S
C834       C2681   1.407       .  A
C834        S836   1.809       .  S
H840       C2681   1.081       .  S
C841       C2690   1.408       .  A
C841        C846   1.420       .  A
C842       C2689   1.408       .  A
C842        C843   1.404       .  A
C842        H851   1.083       .  S
C843        C844   1.418       .  A
C843        S847   1.802       .  S
C844       C2693   1.405       .  A
C845       C2692   1.405       .  A
C845        C846   1.393   1_655  A
C845        H852   1.083       .  S
C846        S848   1.804       .  S
S847        H850   1.406       .  S
S848        H849   1.408       .  S
C853       C1425   1.485       .  S
C853        C854   1.411       .  A
C853        C858   1.419       .  A
C854        C855   1.387       .  A
C854        H863   1.084       .  S
C855        C856   1.403       .  A
C855        S859   1.802       .  S
C856        C857   1.401       .  A
C857        C858   1.401       .  A
C857        H864   1.084       .  S
C858        S860   1.798       .  S
S859        H862   1.406       .  S
S860       H1785   1.398       .  S
H861       S1784   1.398       .  S
C865        C866   1.403       .  A
C865        C870   1.418       .  A
C866        C867   1.383       .  A
C866        H875   1.084       .  S
C867        C868   1.410       .  A
C867        S871   1.796       .  S
C868        C869   1.404       .  A
C869        C870   1.401       .  A
C869        H876   1.084       .  S
C870        S872   1.799       .  S
S871        H874   1.405       .  S
S872        H873   1.408       .  S
C877       C1483   1.517       .  S
C877        C878   1.417       .  A
C877        C882   1.422       .  A
C878        C879   1.414       .  A
C878        H887   1.083       .  S
C879        C880   1.413       .  A
C879        S883   1.803       .  S
C880       C2322   1.499   1_455  S
C880        C881   1.406       .  A
C881        C882   1.407       .  A
C881        H888   1.083       .  S
C882        S884   1.801       .  S
S883       H2734   1.404       .  S
S884       H1809   1.407       .  S
H885       S1808   1.407   1_545  S
H886       S2731   1.404       .  S
C889        C890   1.412       .  A
C889        C894   1.423       .  A
C890        C891   1.407       .  A
C890        H899   1.084       .  S
C891        C892   1.415       .  A
C891        S895   1.803       .  S
C892        C893   1.407       .  A
C893        C894   1.414       .  A
C893        H900   1.084       .  S
C894        S896   1.799       .  S
S895        H898   1.405       .  S
S896        H897   1.408       .  S
C901        C902   1.394       .  A
C901        C906   1.410       .  A
C902        H911   1.086       .  S
C903        C904   1.421       .  A
C903        S907   1.807       .  S
C904        C905   1.404       .  A
C905        H912   1.083       .  S
C906        S908   1.798       .  S
S907        H910   1.404       .  S
S908        H909   1.405       .  S
C913        C914   1.400       .  A
C913        C918   1.416       .  A
C914        C915   1.400       .  A
C914        H923   1.084       .  S
C915        C916   1.415       .  A
C915        S919   1.798       .  S
C916        C917   1.404       .  A
C917        C918   1.402       .  A
C917        H924   1.084       .  S
C918        S920   1.803       .  S
S919        H922   1.407       .  S
S920        H921   1.403       .  S
O925        C933   1.264       .  A
O925       Co945   1.877       .  S
O926        C934   1.250       .  A
O926       Co946   1.943       .  S
O927        C935   1.262       .  A
O927       Co947   2.018       .  S
O928        C936   1.279       .  A
O928       Co948   2.046       .  S
O929        C935   1.249       .  A
O929       Co946   1.931       .  S
O930        C936   1.268       .  A
O930       Co945   1.988       .  S
O931        C934   1.274       .  A
O931       Co948   2.042       .  S
O932        C933   1.293       .  A
O932       Co947   2.111       .  S
C933       C1318   1.461       .  S
C934       C1291   1.485       .  S
C935       C1363   1.450       .  S
C936       C3190   1.499       .  S
O937        C950   1.262       .  A
O937       Co945   1.989       .  S
O938        C951   1.279       .  A
O938       Co946   2.031       .  S
O939        C952   1.271       .  A
O939       Co947   1.898       .  S
O940        C953   1.262       .  A
O940       Co948   1.949       .  S
O941        C953   1.268       .  A
O941       Co946   2.009       .  S
O942        C952   1.297       .  A
O942       Co945   2.111       .  S
O943        C950   1.260       .  A
O943       Co948   1.987       .  S
O944        C951   1.273       .  A
O944       Co947   1.990       .  S
Co945       O949   1.983       .  S
Co946       O949   2.014       .  S
Co947       O949   2.028       .  S
Co948       O949   2.049       .  S
C950       C1306   1.492       .  S
C951       C1351   1.513       .  S
C952       C1378   1.483       .  S
C953       C1327   1.479       .  S
O954        C962   1.256       .  A
O954       Co974   1.976       .  S
O955        C963   1.246       .  A
O955       Co975   1.945       .  S
O956        C964   1.255       .  A
O956      Co2824   1.982       .  S
O957        C965   1.275       .  A
O957       Co977   2.051       .  S
O958       C2812   1.242       .  A
O958       Co975   1.958       .  S
O959        C965   1.254       .  A
O959       Co974   1.931       .  S
O960        C963   1.252       .  A
O960       Co977   1.993       .  S
O961        C962   1.271       .  A
O961       Co976   2.036       .  S
C962       C1231   1.486       .  S
C964       O2806   1.242       .  A
C964       C1267   1.470   1_655  S
C965       C1255   1.474       .  S
O966        C979   1.269       .  A
O966       Co974   2.017       .  S
O967        C980   1.300       .  A
O967       Co975   2.072       .  S
O968        C981   1.256       .  A
O968       Co976   1.971       .  S
O969        C982   1.300       .  A
O969       Co977   2.094       .  S
O970        C982   1.264       .  A
O970       Co975   1.877       .  S
O971        C981   1.266       .  A
O971       Co974   2.006       .  S
O972        C979   1.257       .  A
O972       Co977   1.956       .  S
O973        C980   1.272       .  A
O973       Co976   1.895       .  S
Co974       O978   2.054       .  S
Co975       O978   2.034       .  S
Co976      O2804   1.982       .  S
Co976       O978   1.938       .  S
Co977       O978   2.144       .  S
C979       C1279   1.476       .  S
C980       C1219   1.477       .  S
C981       C1330   1.471       .  S
C982       C1246   1.480       .  S
O983        C991   1.249       .  A
O983      Co1003   2.045       .  S
O984        C992   1.256       .  A
O984      Co1004   1.977       .  S
O985        C993   1.278   1_565  A
O985      Co1005   2.016       .  S
O986        C994   1.258       .  A
O986      Co1006   1.946       .  S
O987        C993   1.274       .  A
O987      Co1004   1.999   1_545  S
O988        C994   1.282       .  A
O988      Co1003   2.047       .  S
O989        C992   1.253       .  A
O989      Co1006   1.952       .  S
O990        C991   1.232       .  A
O990      Co1005   1.984       .  S
C991       C3058   1.504   1_455  S
C992       C1147   1.461       .  S
C994       C1294   1.476       .  S
O995       C1008   1.278       .  A
O995      Co1003   2.008       .  S
O996       C1009   1.250       .  A
O996      Co1004   1.939       .  S
O997       C1010   1.293       .  A
O997      Co1005   1.969       .  S
O998       C1011   1.275       .  A
O998      Co1006   2.030       .  S
O999       C1011   1.263       .  A
O999      Co1004   1.968       .  S
O1000      C1010   1.302       .  A
O1000     Co1003   1.996       .  S
O1001      C1008   1.266       .  A
O1001     Co1006   1.987       .  S
O1002      C1009   1.266       .  A
O1002     Co1005   2.019       .  S
Co1003     O1007   2.108       .  S
Co1004     O1007   2.059       .  S
Co1005     O1007   1.983       .  S
Co1006     O1007   2.014       .  S
C1008      C1186   1.507       .  S
C1009      C1159   1.503       .  S
C1010      C1303   1.492       .  S
C1011      C1195   1.474       .  S
O1012      C1020   1.241       .  A
O1012     Co1032   1.943       .  S
O1013      C1021   1.271       .  A
O1013     Co1033   1.991       .  S
O1014      C1022   1.299       .  A
O1014     Co1034   2.111       .  S
O1015      C1023   1.272       .  A
O1015     Co1035   2.019       .  S
O1016      C1022   1.261       .  A
O1016     Co1033   1.902       .  S
O1017      C1023   1.248       .  A
O1017     Co1032   1.923       .  S
O1018      C1021   1.279       .  A
O1018     Co1035   2.045       .  S
O1019      C1020   1.258       .  A
O1019     Co1034   2.022       .  S
C1020      C1126   1.467       .  S
C1022      C1162   1.484       .  S
C1023      C1270   1.475       .  S
O1024      C1037   1.272       .  A
O1024     Co1032   2.027       .  S
O1025      C1038   1.295       .  A
O1025     Co1033   2.108       .  S
O1026      C1039   1.265       .  A
O1026     Co1034   1.976       .  S
O1027      C1040   1.255       .  A
O1027     Co1035   1.966       .  S
O1028      C1040   1.257       .  A
O1028     Co1033   1.961       .  S
O1029      C1039   1.284       .  A
O1029     Co1032   2.062       .  S
O1030      C1037   1.259       .  A
O1030     Co1035   1.967       .  S
O1031      C1038   1.264       .  A
O1031     Co1034   1.888       .  S
Co1032     O1036   2.016       .  S
Co1033     O1036   2.007       .  S
Co1034     O1036   2.026       .  S
Co1035     O1036   2.045       .  S
C1037      C1138   1.505       .  S
C1038      C1282   1.485       .  S
C1039      C1354   1.501       .  S
C1040      C1150   1.463       .  S
O1041      C1049   1.270       .  A
O1041     Co1061   1.850       .  S
O1042      C1050   1.275       .  A
O1042     Co1062   1.898       .  S
O1043      C1051   1.266       .  A
O1043     Co1063   2.026       .  S
O1044      C1052   1.267       .  A
O1044     Co1064   2.019       .  S
O1045      C1051   1.253       .  A
O1045     Co1062   1.958       .  S
O1046      C1052   1.263       .  A
O1046     Co1061   1.980       .  S
O1047      C1050   1.302       .  A
O1047     Co1064   2.101       .  S
O1048      C1049   1.299       .  A
O1048     Co1063   2.092       .  S
C1049      C2947   1.446   1_455  S
C1050      C1135   1.500       .  S
C1051      C1222   1.497       .  S
C1052      C1174   1.490       .  S
O1053      C1066   1.269       .  A
O1053     Co1061   2.005       .  S
O1054      C1067   1.285       .  A
O1054     Co1062   2.064       .  S
O1055      C1068   1.247       .  A
O1055     Co1063   1.956       .  S
O1056      C1069   1.249       .  A
O1056     Co1064   1.952       .  S
O1057      C1069   1.245       .  A
O1057     Co1062   1.960       .  S
O1058      C1068   1.256       .  A
O1058     Co1061   2.015       .  S
O1059      C1066   1.256       .  A
O1059     Co1064   1.965       .  S
O1060      C1067   1.253       .  A
O1060     Co1063   1.948       .  S
Co1061     O1065   1.979       .  S
Co1062     O1065   1.980       .  S
Co1063     O1065   2.113       .  S
Co1064     O1065   2.114       .  S
C1066      C1123   1.486       .  S
C1067      C1183   1.498       .  S
C1068      C1234   1.488       .  S
C1069      C1114   1.461       .  S
O1070      C1078   1.269       .  A
O1070     Co1090   1.980       .  S
O1071      C1079   1.253       .  A
O1071     Co1091   1.952       .  S
O1072      C1080   1.270       .  A
O1072     Co1092   2.035       .  S
O1073      C1081   1.289       .  A
O1073     Co1093   2.094       .  S
O1074      C1080   1.242       .  A
O1074     Co1091   1.915       .  S
O1075      C1081   1.262       .  A
O1075     Co1090   1.867       .  S
O1076      C1079   1.270       .  A
O1076     Co1093   2.031       .  S
O1077      C1078   1.278       .  A
O1077     Co1092   2.036       .  S
C1078      C1207   1.505       .  S
C1079      C1243   1.471   1_565  S
C1080      C1366   1.470       .  S
O1082      C1095   1.298       .  A
O1082     Co1090   2.109       .  S
O1083      C1096   1.274       .  A
O1083     Co1091   2.025       .  S
O1084      C1097   1.249       .  A
O1084     Co1092   1.969       .  S
O1085      C1098   1.270       .  A
O1085     Co1093   1.989       .  S
O1086      C1098   1.270       .  A
O1086     Co1091   2.001       .  S
O1087      C1097   1.263       .  A
O1087     Co1090   2.019       .  S
O1088      C1095   1.272       .  A
O1088     Co1093   1.889       .  S
O1089      C1096   1.251       .  A
O1089     Co1092   1.903       .  S
Co1090     O1094   1.981       .  S
Co1091     O1094   2.011       .  S
Co1092     O1094   2.047       .  S
Co1093     O1094   2.009       .  S
C1095      C1258   1.484       .  S
C1096      C1111   1.472       .  S
C1097      C1375   1.476       .  S
C1098      C1198   1.482       .  S
C1099      C2897   1.446       .  S
C1099      C1100   1.401       .  A
C1099      C1104   1.403       .  A
C1100      C1101   1.392       .  A
C1100      H1109   1.085       .  S
C1101      C1102   1.407       .  A
C1101      S1105   1.806       .  S
C1102      C1103   1.399       .  A
C1103      C1104   1.388       .  A
C1103      H1110   1.084       .  S
C1104      S1106   1.798       .  S
S1106      H1107   1.403       .  S
C1111      C1112   1.415       .  A
C1111      C1116   1.408       .  A
C1112      C1113   1.385       .  A
C1112      H1121   1.084       .  S
C1113      C1114   1.400       .  A
C1113      S1117   1.804       .  S
C1114      C1115   1.410       .  A
C1115      C1116   1.392       .  A
C1115      H1122   1.084       .  S
C1116      S1118   1.800       .  S
S1117      H1120   1.408       .  S
S1118      H1119   1.408       .  S
C1123      C1124   1.403       .  A
C1123      C1128   1.425       .  A
C1124      C1125   1.389       .  A
C1124      H1133   1.083       .  S
C1125      C1126   1.412       .  A
C1125      S1129   1.801       .  S
C1126      C1127   1.398       .  A
C1127      C1128   1.403       .  A
C1127      H1134   1.084       .  S
C1128      S1130   1.801       .  S
S1129      H1132   1.399       .  S
S1130      H1131   1.408       .  S
C1135      C1136   1.406       .  A
C1135      C1140   1.416   1_554  A
C1136      C1137   1.402       .  A
C1136      H1145   1.084       .  S
C1137      C1600   1.422   1_554  A
C1137      S1141   1.802       .  S
C1138      C1599   1.422       .  A
C1138      C1139   1.411       .  A
C1139      C1602   1.408       .  A
C1139      H1146   1.083       .  S
C1140      C1601   1.408       .  A
C1140      S1604   1.801       .  S
S1141      H1606   1.407   1_554  S
S1142      C1602   1.801       .  S
S1142      H1605   1.408       .  S
H1143      S1604   1.408   1_554  S
H1144      S1603   1.407       .  S
C1147      C1614   1.410   1_554  A
C1148      C1149   1.391   1_554  A
C1148      H1157   1.084       .  S
C1149      C1612   1.409       .  A
C1149      S1153   1.803       .  S
C1150      C1611   1.409       .  A
C1151      C1152   1.385       .  A
C1151      H1158   1.084       .  S
C1152      C1609   1.410       .  A
C1152      S1154   1.800       .  S
S1153      H1156   1.408       .  S
S1154      H1617   1.408       .  S
H1155      S1616   1.408   1_554  S
C1159      C1164   1.414       .  A
C1160      C1161   1.393       .  A
C1160      H1169   1.081       .  S
C1161      C1162   1.403       .  A
C1161      S1165   1.812       .  S
C1162      C1163   1.413       .  A
C1164      S1166   1.799       .  S
S1165      H1168   1.406       .  S
S1166      H1167   1.407       .  S
C1171      C1172   1.414       .  A
C1171      C1176   1.419       .  A
C1172      C1173   1.410       .  A
C1172      H1181   1.083       .  S
C1173      C1174   1.409       .  A
C1173      S1177   1.800       .  S
C1174      C1175   1.405       .  A
C1175      C1176   1.404       .  A
C1175      H1182   1.082       .  S
C1176      S1178   1.801       .  S
S1177      H1180   1.406       .  S
S1178      H1179   1.408       .  S
C1183      C1184   1.419       .  A
C1183      C1188   1.404       .  A
C1184      C1185   1.413       .  A
C1184      H1193   1.084       .  S
C1185      C1186   1.414       .  A
C1185      S1189   1.805       .  S
C1186      C1187   1.419       .  A
C1187      C1188   1.401       .  A
C1187      H1194   1.079       .  S
C1188      S1190   1.803       .  S
S1189      H1192   1.399       .  S
S1190      H1191   1.407       .  S
C1195      C1196   1.403       .  A
C1195      C1200   1.407       .  A
C1196      C1197   1.406       .  A
C1196      H1205   1.081       .  S
C1197      C1198   1.414       .  A
C1197      S1201   1.798       .  S
C1198      C1199   1.407       .  A
C1199      C1200   1.396       .  A
C1199      H1206   1.084       .  S
C1200      S1202   1.802       .  S
S1201      H1204   1.402       .  S
S1202      H1203   1.405       .  S
C1207      C1208   1.409       .  A
C1207      C1212   1.418       .  A
C1208      C1209   1.406       .  A
C1208      H1217   1.083       .  S
C1209      C1210   1.419       .  A
C1209      S3061   1.796       .  S
C1210      C2839   1.504       .  S
C1210      C1211   1.409       .  A
C1211      C1212   1.405       .  A
C1211      H1218   1.082       .  S
C1212      S1214   1.801       .  S
S1213      C3057   1.796   1_455  S
S1213      H1216   1.407       .  S
S1214      H1215   1.406       .  S
C1219      C3068   1.400       .  A
C1219      C1686   1.407       .  A
C1220      C3067   1.400   1_455  A
C1220      C1683   1.400       .  A
C1220      H1229   1.083       .  S
C1221      C1682   1.400   1_554  A
C1221      C1222   1.421       .  A
C1221      S1687   1.812       .  S
C1222      C1223   1.414   1_455  A
C1223      C3072   1.407       .  A
C1223      H3078   1.083       .  S
C1224      C1681   1.407   1_554  A
C1224      C3071   1.407       .  A
C1224      S1226   1.804       .  S
S1225      C1683   1.812       .  S
S1225      H1690   1.407       .  S
S1226      H1689   1.406   1_554  S
H1227      S1688   1.406       .  S
H1228      S1687   1.407   1_556  S
H1230      C3071   1.083       .  S
C1231      C3080   1.410       .  A
C1231      C1236   1.419       .  A
C1232      C3079   1.410       .  A
C1232      C1233   1.413       .  A
C1232      H1241   1.083       .  S
C1233      C1234   1.413       .  A
C1233      S1237   1.802       .  S
C1234      C3083   1.402       .  A
C1235      C3082   1.402       .  A
C1235      C1236   1.396       .  A
C1235      H1242   1.085       .  S
C1236      S1238   1.811       .  S
S1237      H1240   1.407       .  S
S1238      H1239   1.391       .  S
C1243      C1710   1.414   1_545  A
C1244      C1245   1.402       .  A
C1244      H1253   1.084       .  S
C1245      C1708   1.417   1_554  A
C1245      S1249   1.798       .  S
C1246      C1707   1.417       .  A
C1247      C1248   1.397   1_545  A
C1247      H1254   1.085       .  S
C1248      C1705   1.414   1_565  A
C1248      S1250   1.802       .  S
S1249      H1252   1.403       .  S
S1250      H1713   1.400       .  S
H1251      S1712   1.400       .  S
C1255      C1256   1.399       .  A
C1255      C1260   1.412       .  A
C1256      C1257   1.389       .  A
C1256      H1265   1.085       .  S
C1259      C1260   1.406       .  A
C1260      S1262   1.801       .  S
S1261      H1264   1.398       .  S
S1262      H1263   1.404       .  S
C1267      C1268   1.397       .  A
C1267      C1272   1.420       .  A
C1268      C1269   1.384       .  A
C1268      H1277   1.084       .  S
C1269      C1270   1.422       .  A
C1269      S1273   1.807       .  S
C1270      C1271   1.402       .  A
C1271      C1272   1.397       .  A
C1271      H1278   1.084       .  S
C1272      S1274   1.803       .  S
S1273      H1276   1.407       .  S
S1274      H1275   1.398       .  S
C1279      C1280   1.405       .  A
C1279      C1284   1.409       .  A
C1280      C1281   1.398       .  A
C1280      H1289   1.084       .  S
C1281      C1282   1.416       .  A
C1281      S1285   1.802       .  S
C1282      C1283   1.409       .  A
C1283      C1284   1.396       .  A
C1283      H1290   1.083       .  S
C1284      S1286   1.802       .  S
S1285      H1288   1.408       .  S
S1286      H1287   1.401       .  S
C1291      C3140   1.396       .  A
C1291      C1758   1.424       .  A
C1292      C3139   1.396   1_455  A
C1292      C1293   1.396       .  A
C1292      H1301   1.084       .  S
C1293      C1756   1.420       .  A
C1293      S1297   1.802       .  S
C1294      C1755   1.420       .  A
C1294      C1295   1.397   1_455  A
C1295      C3144   1.407       .  A
C1295      H3150   1.081       .  S
C1296      C1753   1.424   1_554  A
C1296      C3143   1.407       .  A
C1296      S1298   1.809       .  S
S1297      H1762   1.392       .  S
S1298      H1761   1.406       .  S
H1299      S1760   1.406       .  S
H1300      S1759   1.392   1_554  S
H1302      C3143   1.081       .  S
C1303      C3152   1.408       .  A
C1303      C1308   1.420       .  A
C1304      C3151   1.408       .  A
C1304      C1305   1.404       .  A
C1304      H1313   1.083       .  S
C1305      C1306   1.418       .  A
C1305      S1309   1.802       .  S
C1306      C3155   1.405       .  A
C1307      C3154   1.405       .  A
C1307      C1308   1.393   1_655  A
C1307      H1314   1.083       .  S
C1308      S1310   1.804       .  S
S1309      H1312   1.406       .  S
S1310      H1311   1.408       .  S
C1315      C1316   1.411       .  A
C1315      C1320   1.419       .  A
C1316      C1317   1.387       .  A
C1316      H1325   1.084   1_565  S
C1317      C1318   1.403       .  A
C1317      S1321   1.802       .  S
C1318      C1319   1.401       .  A
C1319      C1320   1.401       .  A
C1319      H1326   1.084       .  S
C1320      S1322   1.798       .  S
S1321      H1324   1.406       .  S
C1327      C1328   1.403       .  A
C1327      C1332   1.418       .  A
C1328      C1329   1.383       .  A
C1328      H1337   1.084       .  S
C1329      C1330   1.410       .  A
C1329      S1333   1.796       .  S
C1330      C1331   1.404       .  A
C1331      C1332   1.401       .  A
C1331      H1338   1.084       .  S
C1332      S1334   1.799       .  S
S1333      H1336   1.405       .  S
S1334      H1335   1.408       .  S
C1339      C1340   1.417       .  A
C1339      C1344   1.422       .  A
C1340      C1341   1.414       .  A
C1340      H1349   1.083       .  S
C1341      C1342   1.413       .  A
C1341      S1345   1.803       .  S
C1342      C2784   1.499   1_455  S
C1342      C1343   1.406       .  A
C1343      C1344   1.407       .  A
C1343      H1350   1.083       .  S
C1344      S1346   1.801       .  S
S1345      H3196   1.404       .  S
H1348      S3193   1.404       .  S
C1351      C1352   1.412       .  A
C1351      C1356   1.423       .  A
C1352      C1353   1.407       .  A
C1352      H1361   1.084       .  S
C1353      C1354   1.415       .  A
C1353      S1357   1.803       .  S
C1354      C1355   1.407       .  A
C1355      C1356   1.414       .  A
C1355      H1362   1.084       .  S
C1356      S1358   1.799       .  S
S1357      H1360   1.405       .  S
S1358      H1359   1.408       .  S
C1363      C1364   1.394       .  A
C1363      C1368   1.410       .  A
C1364      C1827   1.384       .  A
C1364      H1373   1.086       .  S
C1365      C1826   1.384       .  A
C1365      C1366   1.421   1_556  A
C1365      S1369   1.807   1_556  S
C1366      C1367   1.404       .  A
C1367      C1830   1.401   1_554  A
C1367      H1374   1.083       .  S
C1368      C1829   1.401       .  A
C1368      S1370   1.798       .  S
S1369      H1372   1.404       .  S
S1370      H1371   1.405       .  S
C1375      C1376   1.400       .  A
C1375      C1380   1.416       .  A
C1376      C1377   1.400       .  A
C1376      H1385   1.084       .  S
C1377      C1378   1.415       .  A
C1377      S1381   1.798       .  S
C1378      C1379   1.404       .  A
C1379      C1380   1.402       .  A
C1379      H1386   1.084       .  S
C1380      S1382   1.803       .  S
S1381      H1384   1.407       .  S
S1382      H1383   1.403       .  S
O1387      C1395   1.264       .  A
O1387     Co1407   1.877       .  S
O1388      C1396   1.250       .  A
O1388     Co1408   1.943       .  S
O1389      C1397   1.262       .  A
O1389     Co1409   2.018       .  S
O1390      C1398   1.279       .  A
O1390     Co1410   2.046       .  S
O1391      C1397   1.249       .  A
O1391     Co1408   1.931       .  S
O1392      C1398   1.268       .  A
O1392     Co1407   1.988       .  S
O1393      C1396   1.274       .  A
O1393     Co1410   2.042       .  S
O1394      C1395   1.293       .  A
O1394     Co1409   2.111       .  S
C1395      C1780   1.461       .  S
C1396      C1753   1.485       .  S
C1397      C1825   1.450       .  S
C1398      C3652   1.499       .  S
O1399      C1412   1.262       .  A
O1399     Co1407   1.989       .  S
O1400      C1413   1.279       .  A
O1400     Co1408   2.031       .  S
O1401      C1414   1.271       .  A
O1401     Co1409   1.898       .  S
O1402      C1415   1.262       .  A
O1402     Co1410   1.949       .  S
O1403      C1415   1.268       .  A
O1403     Co1408   2.009       .  S
O1404      C1414   1.297       .  A
O1404     Co1407   2.111       .  S
O1405      C1412   1.260       .  A
O1405     Co1410   1.987       .  S
O1406      C1413   1.273       .  A
O1406     Co1409   1.990       .  S
Co1407     O1411   1.983       .  S
Co1408     O1411   2.014       .  S
Co1409     O1411   2.028       .  S
Co1410     O1411   2.049       .  S
C1412      C1768   1.492       .  S
C1413      C1813   1.513       .  S
C1414      C1840   1.483       .  S
C1415      C1789   1.479       .  S
O1416      C1424   1.256       .  A
O1416     Co1436   1.976       .  S
O1417      C1425   1.246       .  A
O1417     Co1437   1.945       .  S
O1418      C1426   1.255       .  A
O1418     Co3286   1.982       .  S
O1419      C1427   1.275       .  A
O1419     Co1439   2.051       .  S
O1420      C3274   1.242       .  A
O1420     Co1437   1.958       .  S
O1421      C1427   1.254       .  A
O1421     Co1436   1.931       .  S
O1422      C1425   1.252       .  A
O1422     Co1439   1.993       .  S
O1423      C1424   1.271       .  A
O1423     Co1438   2.036       .  S
C1424      C1693   1.486       .  S
C1426      O3268   1.242       .  A
C1426      C1729   1.470   1_655  S
C1427      C1717   1.474       .  S
O1428      C1441   1.269       .  A
O1428     Co1436   2.017       .  S
O1429      C1442   1.300       .  A
O1429     Co1437   2.072       .  S
O1430      C1443   1.256       .  A
O1430     Co1438   1.971       .  S
O1431      C1444   1.300       .  A
O1431     Co1439   2.094       .  S
O1432      C1444   1.264       .  A
O1432     Co1437   1.877       .  S
O1433      C1443   1.266       .  A
O1433     Co1436   2.006       .  S
O1434      C1441   1.257       .  A
O1434     Co1439   1.956       .  S
O1435      C1442   1.272       .  A
O1435     Co1438   1.895       .  S
Co1436     O1440   2.054       .  S
Co1437     O1440   2.034       .  S
Co1438     O3266   1.982       .  S
Co1438     O1440   1.938       .  S
Co1439     O1440   2.144       .  S
C1441      C1741   1.476       .  S
C1442      C1681   1.477       .  S
C1443      C1792   1.471       .  S
C1444      C1708   1.480       .  S
O1445      C1453   1.249       .  A
O1445     Co1465   2.045       .  S
O1446      C1454   1.256       .  A
O1446     Co1466   1.977       .  S
O1447      C1455   1.278   1_565  A
O1447     Co1467   2.016       .  S
O1448      C1456   1.258       .  A
O1448     Co1468   1.946       .  S
O1449      C1455   1.274       .  A
O1449     Co1466   1.999   1_545  S
O1450      C1456   1.282       .  A
O1450     Co1465   2.047       .  S
O1451      C1454   1.253       .  A
O1451     Co1468   1.952       .  S
O1452      C1453   1.232       .  A
O1452     Co1467   1.984       .  S
C1453      C3520   1.504   1_455  S
C1454      C1609   1.461       .  S
C1456      C1756   1.476       .  S
O1457      C1470   1.278       .  A
O1457     Co1465   2.008       .  S
O1458      C1471   1.250       .  A
O1458     Co1466   1.939       .  S
O1459      C1472   1.293       .  A
O1459     Co1467   1.969       .  S
O1460      C1473   1.275       .  A
O1460     Co1468   2.030       .  S
O1461      C1473   1.263       .  A
O1461     Co1466   1.968       .  S
O1462      C1472   1.302       .  A
O1462     Co1465   1.996       .  S
O1463      C1470   1.266       .  A
O1463     Co1468   1.987       .  S
O1464      C1471   1.266       .  A
O1464     Co1467   2.019       .  S
Co1465     O1469   2.108       .  S
Co1466     O1469   2.059       .  S
Co1467     O1469   1.983       .  S
Co1468     O1469   2.014       .  S
C1470      C1648   1.507       .  S
C1471      C1621   1.503       .  S
C1472      C1765   1.492       .  S
C1473      C1657   1.474       .  S
O1474      C1482   1.241       .  A
O1474     Co1494   1.943       .  S
O1475      C1483   1.271       .  A
O1475     Co1495   1.991       .  S
O1476      C1484   1.299       .  A
O1476     Co1496   2.111       .  S
O1477      C1485   1.272       .  A
O1477     Co1497   2.019       .  S
O1478      C1484   1.261       .  A
O1478     Co1495   1.902       .  S
O1479      C1485   1.247       .  A
O1479     Co1494   1.923       .  S
O1480      C1483   1.279       .  A
O1480     Co1497   2.045       .  S
O1481      C1482   1.258       .  A
O1481     Co1496   2.022       .  S
C1482      C1588   1.467       .  S
C1484      C1624   1.484       .  S
C1485      C1732   1.475       .  S
O1486      C1499   1.272       .  A
O1486     Co1494   2.027       .  S
O1487      C1500   1.295       .  A
O1487     Co1495   2.108       .  S
O1488      C1501   1.265       .  A
O1488     Co1496   1.976       .  S
O1489      C1502   1.255       .  A
O1489     Co1497   1.966       .  S
O1490      C1502   1.257       .  A
O1490     Co1495   1.961       .  S
O1491      C1501   1.284       .  A
O1491     Co1494   2.062       .  S
O1492      C1499   1.259       .  A
O1492     Co1497   1.967       .  S
O1493      C1500   1.264       .  A
O1493     Co1496   1.888       .  S
Co1494     O1498   2.016       .  S
Co1495     O1498   2.007       .  S
Co1496     O1498   2.026       .  S
Co1497     O1498   2.045       .  S
C1499      C1600   1.505       .  S
C1500      C1744   1.485       .  S
C1501      C1816   1.501       .  S
C1502      C1612   1.463       .  S
O1503      C1511   1.270       .  A
O1503     Co1523   1.850       .  S
O1504      C1512   1.275       .  A
O1504     Co1524   1.898       .  S
O1505      C1513   1.266       .  A
O1505     Co1525   2.026       .  S
O1506      C1514   1.267       .  A
O1506     Co1526   2.019       .  S
O1507      C1513   1.253       .  A
O1507     Co1524   1.958       .  S
O1508      C1514   1.263       .  A
O1508     Co1523   1.980       .  S
O1509      C1512   1.302       .  A
O1509     Co1526   2.101       .  S
O1510      C1511   1.300       .  A
O1510     Co1525   2.092       .  S
C1511      C3409   1.446   1_455  S
C1512      C1597   1.500       .  S
C1513      C1684   1.497       .  S
C1514      C1636   1.490       .  S
O1515      C1528   1.269       .  A
O1515     Co1523   2.005       .  S
O1516      C1529   1.285       .  A
O1516     Co1524   2.064       .  S
O1517      C1530   1.247       .  A
O1517     Co1525   1.956       .  S
O1518      C1531   1.249       .  A
O1518     Co1526   1.952       .  S
O1519      C1531   1.245       .  A
O1519     Co1524   1.960       .  S
O1520      C1530   1.256       .  A
O1520     Co1523   2.015       .  S
O1521      C1528   1.256       .  A
O1521     Co1526   1.965       .  S
O1522      C1529   1.253       .  A
O1522     Co1525   1.948       .  S
Co1523     O1527   1.979       .  S
Co1524     O1527   1.980       .  S
Co1525     O1527   2.113       .  S
Co1526     O1527   2.114       .  S
C1528      C1585   1.486       .  S
C1529      C1645   1.498       .  S
C1530      C1696   1.488       .  S
C1531      C1576   1.461       .  S
O1532      C1540   1.269       .  A
O1532     Co1552   1.980       .  S
O1533      C1541   1.253       .  A
O1533     Co1553   1.952       .  S
O1534      C1542   1.270       .  A
O1534     Co1554   2.035       .  S
O1535      C1543   1.289       .  A
O1535     Co1555   2.094       .  S
O1536      C1542   1.242       .  A
O1536     Co1553   1.915       .  S
O1537      C1543   1.262       .  A
O1537     Co1552   1.867       .  S
O1538      C1541   1.270       .  A
O1538     Co1555   2.031       .  S
O1539      C1540   1.278       .  A
O1539     Co1554   2.036       .  S
C1540      C1669   1.505       .  S
C1541      C1705   1.471   1_565  S
C1542      C1828   1.470       .  S
O1544      C1557   1.298       .  A
O1544     Co1552   2.109       .  S
O1545      C1558   1.274       .  A
O1545     Co1553   2.025       .  S
O1546      C1559   1.249       .  A
O1546     Co1554   1.969       .  S
O1547      C1560   1.270       .  A
O1547     Co1555   1.989       .  S
O1548      C1560   1.270       .  A
O1548     Co1553   2.001       .  S
O1549      C1559   1.263       .  A
O1549     Co1552   2.019       .  S
O1550      C1557   1.272       .  A
O1550     Co1555   1.889       .  S
O1551      C1558   1.251       .  A
O1551     Co1554   1.903       .  S
Co1552     O1556   1.981       .  S
Co1553     O1556   2.011       .  S
Co1554     O1556   2.047       .  S
Co1555     O1556   2.009       .  S
C1557      C1720   1.484       .  S
C1558      C1573   1.472       .  S
C1559      C1837   1.476       .  S
C1560      C1660   1.482       .  S
C1561      C3359   1.446       .  S
C1561      C1562   1.401       .  A
C1561      C1566   1.403       .  A
C1562      C1563   1.392       .  A
C1562      H1571   1.085       .  S
C1563      C1564   1.407       .  A
C1563      S1567   1.806       .  S
C1564      C1565   1.399       .  A
C1565      C1566   1.388       .  A
C1565      H1572   1.084       .  S
C1566      S1568   1.798       .  S
S1568      H1569   1.403       .  S
C1573      C1574   1.415       .  A
C1573      C1578   1.408       .  A
C1574      C1575   1.385       .  A
C1574      H1583   1.084       .  S
C1575      C1576   1.400       .  A
C1575      S1579   1.804       .  S
C1576      C1577   1.410       .  A
C1577      C1578   1.392       .  A
C1577      H1584   1.084       .  S
C1578      S1580   1.800       .  S
S1579      H1582   1.408       .  S
S1580      H1581   1.408       .  S
C1585      C1586   1.403       .  A
C1585      C1590   1.425       .  A
C1586      C1587   1.389       .  A
C1586      H1595   1.083       .  S
C1587      C1588   1.412       .  A
C1587      S1591   1.801       .  S
C1588      C1589   1.398       .  A
C1589      C1590   1.403       .  A
C1589      H1596   1.084       .  S
C1590      S1592   1.801       .  S
S1591      H1594   1.399       .  S
S1592      H1593   1.408       .  S
C1597      C1598   1.406       .  A
C1597      C1602   1.416       .  A
C1598      C1599   1.402       .  A
C1598      H1607   1.084       .  S
C1599      S1603   1.802       .  S
C1600      C1601   1.411       .  A
C1601      H1608   1.083       .  S
C1610      C1611   1.391       .  A
C1610      H1619   1.084       .  S
C1611      S1615   1.803       .  S
C1613      C1614   1.385       .  A
C1613      H1620   1.084       .  S
C1614      S1616   1.800       .  S
S1615      H1618   1.408       .  S
C1621      C1626   1.414       .  A
C1622      C1623   1.393       .  A
C1622      H1631   1.081       .  S
C1623      C1624   1.403       .  A
C1623      S1627   1.812       .  S
C1624      C1625   1.413       .  A
C1626      S1628   1.799       .  S
S1627      H1630   1.406       .  S
S1628      H1629   1.407       .  S
C1633      C1634   1.414       .  A
C1633      C1638   1.419       .  A
C1634      C1635   1.410       .  A
C1634      H1643   1.083       .  S
C1635      C1636   1.409       .  A
C1635      S1639   1.800       .  S
C1636      C1637   1.405       .  A
C1637      C1638   1.404       .  A
C1637      H1644   1.082       .  S
C1638      S1640   1.801       .  S
S1639      H1642   1.406       .  S
S1640      H1641   1.408       .  S
C1645      C1646   1.419       .  A
C1645      C1650   1.404       .  A
C1646      C1647   1.413       .  A
C1646      H1655   1.084       .  S
C1647      C1648   1.414       .  A
C1647      S1651   1.805       .  S
C1648      C1649   1.419       .  A
C1649      C1650   1.401       .  A
C1649      H1656   1.079       .  S
C1650      S1652   1.803       .  S
S1651      H1654   1.399       .  S
S1652      H1653   1.407       .  S
C1657      C1658   1.403       .  A
C1657      C1662   1.407       .  A
C1658      C1659   1.406       .  A
C1658      H1667   1.081       .  S
C1659      C1660   1.414       .  A
C1659      S1663   1.798       .  S
C1660      C1661   1.407       .  A
C1661      C1662   1.396       .  A
C1661      H1668   1.084       .  S
C1662      S1664   1.802       .  S
S1663      H1666   1.402       .  S
S1664      H1665   1.405       .  S
C1669      C1670   1.409       .  A
C1669      C1674   1.418       .  A
C1670      C1671   1.406       .  A
C1670      H1679   1.083       .  S
C1671      C1672   1.419       .  A
C1671      S3523   1.796       .  S
C1672      C3301   1.504       .  S
C1672      C1673   1.409       .  A
C1673      C1674   1.405       .  A
C1673      H1680   1.082       .  S
C1674      S1676   1.801       .  S
S1675      C3519   1.796   1_455  S
S1675      H1678   1.407       .  S
S1676      H1677   1.406       .  S
C1681      C3530   1.400       .  A
C1682      C3529   1.400   1_455  A
C1682      H1691   1.083       .  S
C1683      C1684   1.421       .  A
C1684      C1685   1.414   1_455  A
C1685      C3534   1.407       .  A
C1685      H3540   1.083       .  S
C1686      C3533   1.407       .  A
C1686      S1688   1.804       .  S
H1692      C3533   1.083       .  S
C1693      C3542   1.410       .  A
C1693      C1698   1.419       .  A
C1694      C3541   1.410       .  A
C1694      C1695   1.413       .  A
C1694      H1703   1.083       .  S
C1695      C1696   1.413       .  A
C1695      S1699   1.802       .  S
C1696      C3545   1.402       .  A
C1697      C3544   1.402       .  A
C1697      C1698   1.396       .  A
C1697      H1704   1.085       .  S
C1698      S1700   1.811       .  S
S1699      H1702   1.407       .  S
S1700      H1701   1.391       .  S
C1706      C1707   1.402       .  A
C1706      H1715   1.084       .  S
C1707      S1711   1.798       .  S
C1709      C1710   1.397   1_546  A
C1709      H1716   1.085       .  S
C1710      S1712   1.802       .  S
S1711      H1714   1.403       .  S
C1717      C1718   1.399       .  A
C1717      C1722   1.412       .  A
C1718      C1719   1.389       .  A
C1718      H1727   1.085       .  S
C1721      C1722   1.406       .  A
C1722      S1724   1.801       .  S
S1723      H1726   1.398       .  S
S1724      H1725   1.404       .  S
C1729      C1730   1.397       .  A
C1729      C1734   1.419       .  A
C1730      C1731   1.384       .  A
C1730      H1739   1.084       .  S
C1731      C1732   1.422       .  A
C1731      S1735   1.807       .  S
C1732      C1733   1.402       .  A
C1733      C1734   1.397       .  A
C1733      H1740   1.084       .  S
C1734      S1736   1.803       .  S
S1735      H1738   1.407       .  S
S1736      H1737   1.398       .  S
C1741      C1742   1.405       .  A
C1741      C1746   1.409       .  A
C1742      C1743   1.398       .  A
C1742      H1751   1.084       .  S
C1743      C1744   1.416       .  A
C1743      S1747   1.802       .  S
C1744      C1745   1.409       .  A
C1745      C1746   1.396       .  A
C1745      H1752   1.083       .  S
C1746      S1748   1.802       .  S
S1747      H1750   1.408       .  S
S1748      H1749   1.401       .  S
C1753      C3602   1.396       .  A
C1754      C3601   1.396   1_455  A
C1754      C1755   1.396   1_556  A
C1754      H1763   1.084       .  S
C1755      S1759   1.802   1_554  S
C1756      C1757   1.397   1_455  A
C1757      C3606   1.407       .  A
C1757      H3612   1.081       .  S
C1758      C3605   1.407       .  A
C1758      S1760   1.809       .  S
H1764      C3605   1.081       .  S
C1765      C3614   1.408       .  A
C1765      C1770   1.420       .  A
C1766      C3613   1.408       .  A
C1766      C1767   1.404       .  A
C1766      H1775   1.083       .  S
C1767      C1768   1.418       .  A
C1767      S1771   1.802       .  S
C1768      C3617   1.405       .  A
C1769      C3616   1.405       .  A
C1769      C1770   1.393   1_655  A
C1769      H1776   1.083       .  S
C1770      S1772   1.804       .  S
S1771      H1774   1.406       .  S
S1772      H1773   1.408       .  S
C1777      C1778   1.411       .  A
C1777      C1782   1.419       .  A
C1778      C1779   1.387       .  A
C1778      H1787   1.084   1_565  S
C1779      C1780   1.403       .  A
C1779      S1783   1.802       .  S
C1780      C1781   1.401       .  A
C1781      C1782   1.401       .  A
C1781      H1788   1.084       .  S
C1782      S1784   1.798       .  S
S1783      H1786   1.406       .  S
C1789      C1790   1.403       .  A
C1789      C1794   1.418       .  A
C1790      C1791   1.383       .  A
C1790      H1799   1.084       .  S
C1791      C1792   1.410       .  A
C1791      S1795   1.796       .  S
C1792      C1793   1.404       .  A
C1793      C1794   1.401       .  A
C1793      H1800   1.084       .  S
C1794      S1796   1.799       .  S
S1795      H1798   1.405       .  S
S1796      H1797   1.408       .  S
C1801      C1802   1.417       .  A
C1801      C1806   1.422       .  A
C1802      C1803   1.414       .  A
C1802      H1811   1.083       .  S
C1803      C1804   1.413       .  A
C1803      S1807   1.803       .  S
C1804      C3246   1.499   1_455  S
C1804      C1805   1.406       .  A
C1805      C1806   1.407       .  A
C1805      H1812   1.083       .  S
C1806      S1808   1.801       .  S
S1807      H3658   1.404       .  S
H1810      S3655   1.404       .  S
C1813      C1814   1.412       .  A
C1813      C1818   1.423       .  A
C1814      C1815   1.407       .  A
C1814      H1823   1.084       .  S
C1815      C1816   1.415       .  A
C1815      S1819   1.803       .  S
C1816      C1817   1.407       .  A
C1817      C1818   1.414       .  A
C1817      H1824   1.084       .  S
C1818      S1820   1.799       .  S
S1819      H1822   1.405       .  S
S1820      H1821   1.408       .  S
C1825      C1826   1.394       .  A
C1825      C1830   1.410       .  A
C1826      H1835   1.086       .  S
C1827      C1828   1.421       .  A
C1827      S1831   1.807       .  S
C1828      C1829   1.404       .  A
C1829      H1836   1.083       .  S
C1830      S1832   1.798       .  S
S1831      H1834   1.404       .  S
S1832      H1833   1.405       .  S
C1837      C1838   1.400       .  A
C1837      C1842   1.416       .  A
C1838      C1839   1.400       .  A
C1838      H1847   1.084       .  S
C1839      C1840   1.415       .  A
C1839      S1843   1.798       .  S
C1840      C1841   1.404       .  A
C1841      C1842   1.402       .  A
C1841      H1848   1.084       .  S
C1842      S1844   1.803       .  S
S1843      H1846   1.407       .  S
S1844      H1845   1.403       .  S
O1849      C1857   1.264       .  A
O1849     Co1869   1.877       .  S
O1850      C1858   1.250       .  A
O1850     Co1870   1.943       .  S
O1851      C1859   1.262       .  A
O1851     Co1871   2.018       .  S
O1852      C1860   1.279       .  A
O1852     Co1872   2.046       .  S
O1853      C1859   1.249       .  A
O1853     Co1870   1.931       .  S
O1854      C1860   1.268       .  A
O1854     Co1869   1.988       .  S
O1855      C1858   1.274       .  A
O1855     Co1872   2.042       .  S
O1856      C1857   1.293       .  A
O1856     Co1871   2.111       .  S
C1857      C2242   1.461       .  S
C1858      C2215   1.485       .  S
C1859      C2287   1.450       .  S
O1861      C1874   1.262       .  A
O1861     Co1869   1.989       .  S
O1862      C1875   1.279       .  A
O1862     Co1870   2.031       .  S
O1863      C1876   1.271       .  A
O1863     Co1871   1.898       .  S
O1864      C1877   1.262       .  A
O1864     Co1872   1.949       .  S
O1865      C1877   1.268       .  A
O1865     Co1870   2.009       .  S
O1866      C1876   1.297       .  A
O1866     Co1869   2.111       .  S
O1867      C1874   1.260       .  A
O1867     Co1872   1.987       .  S
O1868      C1875   1.273       .  A
O1868     Co1871   1.990       .  S
Co1869     O1873   1.983       .  S
Co1870     O1873   2.014       .  S
Co1871     O1873   2.028       .  S
Co1872     O1873   2.049       .  S
C1874      C2230   1.492       .  S
C1875      C2275   1.513       .  S
C1876      C2302   1.483       .  S
C1877      C2251   1.479       .  S
O1878      C1886   1.256       .  A
O1878     Co1898   1.976       .  S
O1879      C1887   1.246       .  A
O1879     Co1899   1.945       .  S
O1880      C1888   1.255       .  A
O1881      C1889   1.275       .  A
O1881     Co1901   2.051       .  S
O1882     Co1899   1.958       .  S
O1883      C1889   1.254       .  A
O1883     Co1898   1.931       .  S
O1884      C1887   1.252       .  A
O1884     Co1901   1.993       .  S
O1885      C1886   1.271       .  A
O1885     Co1900   2.036       .  S
C1886      C2155   1.486   1_655  S
C1887      C3163   1.485   1_545  S
C1888      C2191   1.470       .  S
C1889      C2179   1.474       .  S
O1890      C1903   1.269       .  A
O1890     Co1898   2.017       .  S
O1891      C1904   1.300       .  A
O1891     Co1899   2.072       .  S
O1892      C1905   1.256       .  A
O1892     Co1900   1.971       .  S
O1893      C1906   1.300       .  A
O1893     Co1901   2.094       .  S
O1894      C1906   1.264       .  A
O1894     Co1899   1.877       .  S
O1895      C1905   1.266       .  A
O1895     Co1898   2.006       .  S
O1896      C1903   1.257       .  A
O1896     Co1901   1.956       .  S
O1897      C1904   1.272       .  A
O1897     Co1900   1.895       .  S
Co1898     O1902   2.054       .  S
Co1899     O1902   2.034       .  S
Co1900     O1902   1.938       .  S
Co1901     O1902   2.144       .  S
C1903      C2203   1.476       .  S
C1904      C2143   1.477       .  S
C1905      C2254   1.471       .  S
C1906      C2170   1.480       .  S
O1907      C1915   1.249       .  A
O1907     Co1927   2.045       .  S
O1908      C1916   1.256       .  A
O1908     Co1928   1.977       .  S
O1909      C1917   1.278       .  A
O1909     Co1929   2.016       .  S
O1910      C1918   1.258       .  A
O1910     Co1930   1.946       .  S
O1911      C1917   1.274       .  A
O1911     Co1928   1.999       .  S
O1912      C1918   1.282       .  A
O1912     Co1927   2.047       .  S
O1913      C1916   1.253       .  A
O1913     Co1930   1.952       .  S
O1914      C1915   1.232       .  A
O1914     Co1929   1.984       .  S
C1916      C2071   1.461       .  S
C1917      C3019   1.505       .  S
C1918      C2218   1.476       .  S
O1919      C1932   1.278       .  A
O1919     Co1927   2.008       .  S
O1920      C1933   1.250       .  A
O1920     Co1928   1.939       .  S
O1921      C1934   1.293       .  A
O1921     Co1929   1.969       .  S
O1922      C1935   1.275       .  A
O1922     Co1930   2.030       .  S
O1923      C1935   1.263       .  A
O1923     Co1928   1.968       .  S
O1924      C1934   1.302       .  A
O1924     Co1927   1.996       .  S
O1925      C1932   1.266       .  A
O1925     Co1930   1.987       .  S
O1926      C1933   1.266       .  A
O1926     Co1929   2.019       .  S
Co1927     O1931   2.108       .  S
Co1928     O1931   2.059       .  S
Co1929     O1931   1.983       .  S
Co1930     O1931   2.014       .  S
C1932      C2110   1.507       .  S
C1933      C2083   1.503       .  S
C1934      C2227   1.492       .  S
C1935      C2119   1.474       .  S
O1936      C1944   1.241       .  A
O1936     Co1956   1.943       .  S
O1937      C1945   1.271       .  A
O1937     Co1957   1.991       .  S
O1938      C1946   1.299       .  A
O1938     Co1958   2.111       .  S
O1939      C1947   1.272       .  A
O1939     Co1959   2.019       .  S
O1940      C1946   1.261       .  A
O1940     Co1957   1.902       .  S
O1941      C1947   1.248       .  A
O1941     Co1956   1.923       .  S
O1942      C1945   1.279       .  A
O1942     Co1959   2.045       .  S
O1943      C1944   1.258       .  A
O1943     Co1958   2.022       .  S
C1944      C2050   1.467       .  S
C1945      C3187   1.517   1_545  S
C1946      C2086   1.484       .  S
C1947      C2194   1.475       .  S
O1948      C1961   1.272       .  A
O1948     Co1956   2.027       .  S
O1949      C1962   1.295       .  A
O1949     Co1957   2.108       .  S
O1950      C1963   1.265       .  A
O1950     Co1958   1.976       .  S
O1951      C1964   1.255       .  A
O1951     Co1959   1.966       .  S
O1952      C1964   1.257       .  A
O1952     Co1957   1.961       .  S
O1953      C1963   1.284       .  A
O1953     Co1956   2.062       .  S
O1954      C1961   1.259       .  A
O1954     Co1959   1.967       .  S
O1955      C1962   1.264       .  A
O1955     Co1958   1.888       .  S
Co1956     O1960   2.016       .  S
Co1957     O1960   2.007       .  S
Co1958     O1960   2.026       .  S
Co1959     O1960   2.045       .  S
C1961      C2062   1.505       .  S
C1962      C2206   1.485       .  S
C1963      C2278   1.501       .  S
C1964      C2074   1.463       .  S
O1965      C1973   1.270       .  A
O1965     Co1985   1.850       .  S
O1966      C1974   1.275       .  A
O1966     Co1986   1.898       .  S
O1967      C1975   1.266       .  A
O1967     Co1987   2.026       .  S
O1968      C1976   1.267       .  A
O1968     Co1988   2.019       .  S
O1969      C1975   1.253       .  A
O1969     Co1986   1.958       .  S
O1970      C1976   1.263       .  A
O1970     Co1985   1.980       .  S
O1971      C1974   1.302       .  A
O1971     Co1988   2.101       .  S
O1972      C1973   1.300       .  A
O1972     Co1987   2.092       .  S
C1974      C2059   1.500       .  S
C1975      C2146   1.497       .  S
C1976      C2098   1.490       .  S
O1977      C1990   1.269       .  A
O1977     Co1985   2.005       .  S
O1978      C1991   1.285       .  A
O1978     Co1986   2.064       .  S
O1979      C1992   1.247       .  A
O1979     Co1987   1.956       .  S
O1980      C1993   1.249       .  A
O1980     Co1988   1.952       .  S
O1981      C1993   1.245       .  A
O1981     Co1986   1.960       .  S
O1982      C1992   1.256       .  A
O1982     Co1985   2.015       .  S
O1983      C1990   1.256       .  A
O1983     Co1988   1.965       .  S
O1984      C1991   1.253       .  A
O1984     Co1987   1.948       .  S
Co1985     O1989   1.979       .  S
Co1986     O1989   1.980       .  S
Co1987     O1989   2.113       .  S
Co1988     O1989   2.114       .  S
C1990      C2047   1.486       .  S
C1991      C2107   1.498       .  S
C1992      C2158   1.488       .  S
C1993      C2038   1.461       .  S
O1994      C2002   1.269       .  A
O1994     Co2014   1.980       .  S
O1995      C2003   1.253       .  A
O1995     Co2015   1.952       .  S
O1996      C2004   1.270       .  A
O1996     Co2016   2.035       .  S
O1997      C2005   1.289       .  A
O1997     Co2017   2.094       .  S
O1998      C2004   1.242       .  A
O1998     Co2015   1.915       .  S
O1999      C2005   1.262       .  A
O1999     Co2014   1.867       .  S
O2000      C2003   1.270       .  A
O2000     Co2017   2.031       .  S
O2001      C2002   1.278       .  A
O2001     Co2016   2.036       .  S
C2002      C2131   1.505       .  S
C2003      C2167   1.471       .  S
C2004      C2290   1.470       .  S
C2005      C2950   1.442       .  S
O2006      C2019   1.298       .  A
O2006     Co2014   2.110       .  S
O2007      C2020   1.274       .  A
O2007     Co2015   2.025       .  S
O2008      C2021   1.249       .  A
O2008     Co2016   1.969       .  S
O2009      C2022   1.270       .  A
O2009     Co2017   1.989       .  S
O2010      C2022   1.270       .  A
O2010     Co2015   2.001       .  S
O2011      C2021   1.263       .  A
O2011     Co2014   2.019       .  S
O2012      C2019   1.272       .  A
O2012     Co2017   1.889       .  S
O2013      C2020   1.251       .  A
O2013     Co2016   1.903       .  S
Co2014     O2018   1.981       .  S
Co2015     O2018   2.011       .  S
Co2016     O2018   2.047       .  S
Co2017     O2018   2.009       .  S
C2019      C2182   1.484       .  S
C2020      C2035   1.472       .  S
C2021      C2299   1.476       .  S
C2022      C2122   1.482       .  S
C2023      C2024   1.401       .  A
C2023      C2028   1.403       .  A
C2024      C2025   1.392       .  A
C2024      H2033   1.085       .  S
C2025      C2026   1.407       .  A
C2025      S2029   1.806       .  S
C2026      C2929   1.442   1_545  S
C2026      C2027   1.399       .  A
C2027      C2028   1.388       .  A
C2027      H2034   1.084       .  S
C2028      S2030   1.798       .  S
S2029      H2956   1.403   1_545  S
S2030      H2031   1.403       .  S
H2032      S2953   1.403       .  S
C2035      C2036   1.415       .  A
C2035      C2040   1.408       .  A
C2036      C2037   1.385       .  A
C2036      H2045   1.084       .  S
C2037      C2038   1.400       .  A
C2037      S2041   1.804       .  S
C2038      C2039   1.410       .  A
C2039      C2040   1.392       .  A
C2039      H2046   1.084       .  S
C2040      S2042   1.800       .  S
S2041      H2044   1.408       .  S
S2042      H2043   1.408       .  S
C2047      C2048   1.403       .  A
C2047      C2052   1.425       .  A
C2048      C2049   1.389       .  A
C2048      H2057   1.083       .  S
C2049      C2050   1.412       .  A
C2049      S2053   1.801       .  S
C2050      C2051   1.398       .  A
C2051      C2052   1.403       .  A
C2051      H2058   1.084       .  S
C2052      S2054   1.801       .  S
S2053      H2056   1.399       .  S
S2054      H2055   1.408       .  S
C2059      C2060   1.406       .  A
C2059      C2064   1.416   1_554  A
C2060      C2061   1.402       .  A
C2060      H2069   1.084       .  S
C2061      C2524   1.422   1_554  A
C2061      S2065   1.802       .  S
C2062      C2523   1.422       .  A
C2062      C2063   1.411       .  A
C2063      C2526   1.408       .  A
C2063      H2070   1.083       .  S
C2064      C2525   1.408       .  A
C2064      S2528   1.801       .  S
S2065      H2530   1.407   1_554  S
S2066      C2526   1.801       .  S
S2066      H2529   1.408       .  S
H2067      S2528   1.408   1_554  S
H2068      S2527   1.407       .  S
C2071      C2996   1.405       .  A
C2071      C2538   1.410   1_554  A
C2072      C2995   1.405   1_545  A
C2072      C2073   1.391   1_554  A
C2072      H2081   1.084       .  S
C2073      C2536   1.409       .  A
C2073      S2077   1.803       .  S
C2074      C2535   1.409       .  A
C2074      C2999   1.403   1_545  A
C2075      C2998   1.403       .  A
C2075      C2076   1.385       .  A
C2075      H2082   1.084       .  S
C2076      C2533   1.410       .  A
C2076      S2078   1.800       .  S
S2077      H2080   1.408       .  S
S2078      H2541   1.408       .  S
H2079      S2540   1.408   1_554  S
C2083      C3008   1.418       .  A
C2083      C2088   1.414       .  A
C2084      C3007   1.418   1_545  A
C2084      C2085   1.393       .  A
C2084      H2093   1.081       .  S
C2085      C2086   1.403       .  A
C2085      S2089   1.812       .  S
C2086      C2087   1.413   1_545  A
C2087      C3012   1.413       .  A
C2087      H3018   1.083       .  S
C2088      C3011   1.413       .  A
C2088      S2090   1.799       .  S
S2089      H2092   1.406       .  S
S2090      H2091   1.407       .  S
H2094      C3011   1.083       .  S
C2095      C2841   1.505       .  S
C2095      C2096   1.414       .  A
C2095      C2100   1.419       .  A
C2096      C2097   1.410       .  A
C2096      H2105   1.083       .  S
C2097      C2098   1.409       .  A
C2097      S2101   1.800       .  S
C2098      C2099   1.405       .  A
C2099      C2100   1.404       .  A
C2099      H2106   1.082       .  S
C2100      S2102   1.801       .  S
S2101      H2104   1.406       .  S
S2102      H2103   1.408       .  S
C2107      C2108   1.419       .  A
C2107      C2112   1.404       .  A
C2108      C2109   1.413       .  A
C2108      H2117   1.084       .  S
C2109      C2110   1.414       .  A
C2109      S2113   1.805       .  S
C2110      C2111   1.419       .  A
C2111      C2112   1.401       .  A
C2111      H2118   1.079       .  S
C2112      S2114   1.803       .  S
S2113      H2116   1.399       .  S
S2114      H2115   1.407       .  S
C2119      C2120   1.403       .  A
C2119      C2124   1.407       .  A
C2120      C2121   1.406       .  A
C2120      H2129   1.081       .  S
C2121      C2122   1.414       .  A
C2121      S2125   1.798       .  S
C2122      C2123   1.407       .  A
C2123      C2124   1.396       .  A
C2123      H2130   1.084       .  S
C2124      S2126   1.802       .  S
S2125      H2128   1.402       .  S
S2126      H2127   1.405       .  S
C2131      C2132   1.409       .  A
C2131      C2136   1.418       .  A
C2132      C2133   1.406       .  A
C2132      H2141   1.083       .  S
C2133      C2134   1.419       .  A
C2134      C2135   1.409       .  A
C2135      C2136   1.405       .  A
C2135      H2142   1.082       .  S
C2136      S2138   1.801       .  S
S2137      H2140   1.407       .  S
S2138      H2139   1.406       .  S
C2143      C2610   1.407       .  A
C2144      C2607   1.400       .  A
C2144      H2153   1.083       .  S
C2145      C2606   1.400   1_554  A
C2145      C2146   1.421       .  A
C2145      S2611   1.812       .  S
C2146      C2147   1.414       .  A
C2148      C2605   1.407   1_554  A
C2148      S2150   1.804       .  S
S2149      C2607   1.812       .  S
S2149      H2614   1.407       .  S
S2150      H2613   1.406   1_554  S
H2151      S2612   1.406       .  S
H2152      S2611   1.407   1_556  S
C2155      C2160   1.419   1_455  A
C2156      C2157   1.413       .  A
C2156      H2165   1.083       .  S
C2157      C2158   1.413       .  A
C2157      S2161   1.802       .  S
C2159      C2160   1.396   1_455  A
C2159      H2166   1.085       .  S
C2160      S2162   1.811       .  S
S2161      H2164   1.407       .  S
S2162      H2163   1.391       .  S
C2167      C3092   1.400       .  A
C2167      C2634   1.414       .  A
C2168      C3091   1.400       .  A
C2168      C2169   1.402       .  A
C2168      H2177   1.084       .  S
C2169      C2632   1.417   1_554  A
C2169      S2173   1.798       .  S
C2170      C2631   1.417       .  A
C2170      C3095   1.401       .  A
C2171      C3094   1.401       .  A
C2171      C2172   1.397       .  A
C2171      H2178   1.085       .  S
C2172      C2629   1.414       .  A
C2172      S2174   1.802       .  S
S2173      H2176   1.403       .  S
S2174      H2637   1.400       .  S
H2175      S2636   1.400       .  S
C2179      C2180   1.399       .  A
C2179      C2184   1.412       .  A
C2180      C2181   1.389   1_545  A
C2180      H2189   1.085       .  S
C2181      C3106   1.417       .  A
C2181      S3109   1.798       .  S
C2182      C3105   1.417       .  A
C2182      C3107   1.409       .  A
C2183      C3106   1.409       .  A
C2183      C2184   1.406   1_565  A
C2183      H3114   1.084       .  S
C2184      S2186   1.801       .  S
S2185      C3105   1.798       .  S
S2185      H2188   1.398       .  S
S2186      H2187   1.404       .  S
H2190      C3107   1.084       .  S
C2191      C2192   1.397       .  A
C2191      C2196   1.420       .  A
C2192      C2193   1.384       .  A
C2192      H2201   1.084       .  S
C2193      C2194   1.422       .  A
C2193      S2197   1.807       .  S
C2194      C2195   1.402       .  A
C2195      C2196   1.397       .  A
C2195      H2202   1.084       .  S
C2196      S2198   1.803       .  S
S2197      H2200   1.407       .  S
S2198      H2199   1.398       .  S
C2203      C2204   1.405       .  A
C2203      C2208   1.409       .  A
C2204      C2205   1.398       .  A
C2204      H2213   1.084       .  S
C2205      C2206   1.416       .  A
C2205      S2209   1.802       .  S
C2206      C2207   1.409       .  A
C2207      C2208   1.396       .  A
C2207      H2214   1.083       .  S
C2208      S2210   1.802       .  S
S2209      H2212   1.408       .  S
S2210      H2211   1.401       .  S
C2215      C2682   1.424       .  A
C2216      C2217   1.396       .  A
C2216      H2225   1.084       .  S
C2217      C2680   1.420       .  A
C2217      S2221   1.802       .  S
C2218      C2679   1.420       .  A
C2218      C2219   1.397       .  A
C2220      C2677   1.424   1_554  A
C2220      S2222   1.809       .  S
S2221      H2686   1.392       .  S
S2222      H2685   1.406       .  S
H2223      S2684   1.406       .  S
H2224      S2683   1.392   1_554  S
C2227      C2232   1.420       .  A
C2228      C2229   1.404   1_455  A
C2228      H2237   1.083       .  S
C2229      C2230   1.418       .  A
C2229      S2233   1.802       .  S
C2231      C2232   1.393       .  A
C2231      H2238   1.083       .  S
C2232      S2234   1.804       .  S
S2233      H2236   1.406       .  S
S2234      H2235   1.408       .  S
C2239      C2811   1.485       .  S
C2239      C2240   1.411       .  A
C2239      C2244   1.419       .  A
C2240      C2241   1.387       .  A
C2240      H2249   1.084       .  S
C2241      C2242   1.403       .  A
C2241      S2245   1.802       .  S
C2242      C2243   1.401       .  A
C2243      C2244   1.401       .  A
C2243      H2250   1.084       .  S
C2244      S2246   1.798       .  S
S2245      H2248   1.406       .  S
S2246      H3171   1.398       .  S
H2247      S3170   1.398       .  S
C2251      C2252   1.403       .  A
C2251      C2256   1.418       .  A
C2252      C2253   1.383       .  A
C2252      H2261   1.084       .  S
C2253      C2254   1.410       .  A
C2253      S2257   1.796       .  S
C2254      C2255   1.404       .  A
C2255      C2256   1.401       .  A
C2255      H2262   1.084       .  S
C2256      S2258   1.799       .  S
S2257      H2260   1.405       .  S
S2258      H2259   1.408       .  S
C2263      C2869   1.517       .  S
C2263      C2264   1.417       .  A
C2263      C2268   1.422       .  A
C2264      C2265   1.414       .  A
C2264      H2273   1.083       .  S
C2265      C2266   1.413       .  A
C2265      S2269   1.803       .  S
C2266      C2267   1.406       .  A
C2267      C2268   1.407       .  A
C2267      H2274   1.083       .  S
C2268      S2270   1.801       .  S
S2270      H3195   1.407       .  S
H2271      S3194   1.407   1_545  S
C2275      C2276   1.412       .  A
C2275      C2280   1.423       .  A
C2276      C2277   1.407       .  A
C2276      H2285   1.084       .  S
C2277      C2278   1.415       .  A
C2277      S2281   1.803       .  S
C2278      C2279   1.407       .  A
C2279      C2280   1.414       .  A
C2279      H2286   1.084       .  S
C2280      S2282   1.799       .  S
S2281      H2284   1.405       .  S
S2282      H2283   1.408       .  S
C2287      C2288   1.394       .  A
C2287      C2292   1.410       .  A
C2288      C2751   1.384       .  A
C2288      H2297   1.086       .  S
C2289      C2750   1.384       .  A
C2289      C2290   1.421   1_556  A
C2289      S2293   1.807   1_556  S
C2290      C2291   1.404       .  A
C2291      C2754   1.401   1_554  A
C2291      H2298   1.083       .  S
C2292      C2753   1.401       .  A
C2292      S2294   1.798       .  S
S2293      H2296   1.404       .  S
S2294      H2295   1.405       .  S
C2299      C2300   1.400       .  A
C2299      C2304   1.416       .  A
C2300      C2301   1.400       .  A
C2300      H2309   1.084       .  S
C2301      C2302   1.415       .  A
C2301      S2305   1.798       .  S
C2302      C2303   1.404       .  A
C2303      C2304   1.402       .  A
C2303      H2310   1.084       .  S
C2304      S2306   1.803       .  S
S2305      H2308   1.407       .  S
S2306      H2307   1.403       .  S
O2311      C2319   1.264       .  A
O2311     Co2331   1.877       .  S
O2312      C2320   1.250       .  A
O2312     Co2332   1.943       .  S
O2313      C2321   1.262       .  A
O2313     Co2333   2.018       .  S
O2314      C2322   1.279       .  A
O2314     Co2334   2.046       .  S
O2315      C2321   1.249       .  A
O2315     Co2332   1.931       .  S
O2316      C2322   1.268       .  A
O2316     Co2331   1.988       .  S
O2317      C2320   1.274       .  A
O2317     Co2334   2.042       .  S
O2318      C2319   1.293       .  A
O2318     Co2333   2.111       .  S
C2319      C2704   1.461       .  S
C2320      C2677   1.485       .  S
C2321      C2749   1.450       .  S
O2323      C2336   1.262       .  A
O2323     Co2331   1.989       .  S
O2324      C2337   1.279       .  A
O2324     Co2332   2.031       .  S
O2325      C2338   1.271       .  A
O2325     Co2333   1.898       .  S
O2326      C2339   1.262       .  A
O2326     Co2334   1.949       .  S
O2327      C2339   1.268       .  A
O2327     Co2332   2.009       .  S
O2328      C2338   1.297       .  A
O2328     Co2331   2.111       .  S
O2329      C2336   1.260       .  A
O2329     Co2334   1.987       .  S
O2330      C2337   1.273       .  A
O2330     Co2333   1.990       .  S
Co2331     O2335   1.983       .  S
Co2332     O2335   2.014       .  S
Co2333     O2335   2.028       .  S
Co2334     O2335   2.049       .  S
C2336      C2692   1.492       .  S
C2337      C2737   1.513       .  S
C2338      C2764   1.483       .  S
C2339      C2713   1.479       .  S
O2340      C2348   1.256       .  A
O2340     Co2360   1.976       .  S
O2341      C2349   1.246       .  A
O2341     Co2361   1.945       .  S
O2342      C2350   1.255       .  A
O2343      C2351   1.275       .  A
O2343     Co2363   2.051       .  S
O2344     Co2361   1.958       .  S
O2345      C2351   1.254       .  A
O2345     Co2360   1.931       .  S
O2346      C2349   1.252       .  A
O2346     Co2363   1.993       .  S
O2347      C2348   1.271       .  A
O2347     Co2362   2.036       .  S
C2348      C2617   1.486   1_655  S
C2349      C3625   1.485   1_545  S
C2350      C2653   1.470       .  S
C2351      C2641   1.474       .  S
O2352      C2365   1.269       .  A
O2352     Co2360   2.017       .  S
O2353      C2366   1.300       .  A
O2353     Co2361   2.072       .  S
O2354      C2367   1.256       .  A
O2354     Co2362   1.971       .  S
O2355      C2368   1.300       .  A
O2355     Co2363   2.094       .  S
O2356      C2368   1.264       .  A
O2356     Co2361   1.877       .  S
O2357      C2367   1.266       .  A
O2357     Co2360   2.006       .  S
O2358      C2365   1.257       .  A
O2358     Co2363   1.956       .  S
O2359      C2366   1.272       .  A
O2359     Co2362   1.895       .  S
Co2360     O2364   2.054       .  S
Co2361     O2364   2.034       .  S
Co2362     O2364   1.938       .  S
Co2363     O2364   2.144       .  S
C2365      C2665   1.476       .  S
C2366      C2605   1.477       .  S
C2367      C2716   1.471       .  S
C2368      C2632   1.480       .  S
O2369      C2377   1.249       .  A
O2369     Co2389   2.045       .  S
O2370      C2378   1.256       .  A
O2370     Co2390   1.977       .  S
O2371      C2379   1.278       .  A
O2371     Co2391   2.016       .  S
O2372      C2380   1.258       .  A
O2372     Co2392   1.946       .  S
O2373      C2379   1.274       .  A
O2373     Co2390   1.999       .  S
O2374      C2380   1.282       .  A
O2374     Co2389   2.047       .  S
O2375      C2378   1.253       .  A
O2375     Co2392   1.952       .  S
O2376      C2377   1.232       .  A
O2376     Co2391   1.984       .  S
C2378      C2533   1.461       .  S
C2379      C3481   1.505       .  S
C2380      C2680   1.476       .  S
O2381      C2394   1.278       .  A
O2381     Co2389   2.008       .  S
O2382      C2395   1.250       .  A
O2382     Co2390   1.939       .  S
O2383      C2396   1.293       .  A
O2383     Co2391   1.969       .  S
O2384      C2397   1.275       .  A
O2384     Co2392   2.030       .  S
O2385      C2397   1.263       .  A
O2385     Co2390   1.968       .  S
O2386      C2396   1.302       .  A
O2386     Co2389   1.996       .  S
O2387      C2394   1.266       .  A
O2387     Co2392   1.987       .  S
O2388      C2395   1.266       .  A
O2388     Co2391   2.019       .  S
Co2389     O2393   2.108       .  S
Co2390     O2393   2.059       .  S
Co2391     O2393   1.983       .  S
Co2392     O2393   2.014       .  S
C2394      C2572   1.507       .  S
C2395      C2545   1.503       .  S
C2396      C2689   1.492       .  S
C2397      C2581   1.474       .  S
O2398      C2406   1.241       .  A
O2398     Co2418   1.943       .  S
O2399      C2407   1.271       .  A
O2399     Co2419   1.991       .  S
O2400      C2408   1.299       .  A
O2400     Co2420   2.111       .  S
O2401      C2409   1.272       .  A
O2401     Co2421   2.019       .  S
O2402      C2408   1.261       .  A
O2402     Co2419   1.902       .  S
O2403      C2409   1.248       .  A
O2403     Co2418   1.923       .  S
O2404      C2407   1.279       .  A
O2404     Co2421   2.045       .  S
O2405      C2406   1.258       .  A
O2405     Co2420   2.022       .  S
C2406      C2512   1.467       .  S
C2407      C3649   1.517   1_545  S
C2408      C2548   1.484       .  S
C2409      C2656   1.475       .  S
O2410      C2423   1.272       .  A
O2410     Co2418   2.027       .  S
O2411      C2424   1.295       .  A
O2411     Co2419   2.108       .  S
O2412      C2425   1.265       .  A
O2412     Co2420   1.976       .  S
O2413      C2426   1.255       .  A
O2413     Co2421   1.966       .  S
O2414      C2426   1.257       .  A
O2414     Co2419   1.961       .  S
O2415      C2425   1.284       .  A
O2415     Co2418   2.062       .  S
O2416      C2423   1.259       .  A
O2416     Co2421   1.967       .  S
O2417      C2424   1.264       .  A
O2417     Co2420   1.888       .  S
Co2418     O2422   2.016       .  S
Co2419     O2422   2.007       .  S
Co2420     O2422   2.026       .  S
Co2421     O2422   2.045       .  S
C2423      C2524   1.505       .  S
C2424      C2668   1.485       .  S
C2425      C2740   1.500       .  S
C2426      C2536   1.463       .  S
O2427      C2435   1.270       .  A
O2427     Co2447   1.850       .  S
O2428      C2436   1.275       .  A
O2428     Co2448   1.898       .  S
O2429      C2437   1.266       .  A
O2429     Co2449   2.026       .  S
O2430      C2438   1.267       .  A
O2430     Co2450   2.019       .  S
O2431      C2437   1.253       .  A
O2431     Co2448   1.958       .  S
O2432      C2438   1.263       .  A
O2432     Co2447   1.980       .  S
O2433      C2436   1.302       .  A
O2433     Co2450   2.101       .  S
O2434      C2435   1.300       .  A
O2434     Co2449   2.092       .  S
C2436      C2521   1.500       .  S
C2437      C2608   1.497       .  S
C2438      C2560   1.490       .  S
O2439      C2452   1.269       .  A
O2439     Co2447   2.005       .  S
O2440      C2453   1.285       .  A
O2440     Co2448   2.064       .  S
O2441      C2454   1.247       .  A
O2441     Co2449   1.956       .  S
O2442      C2455   1.249       .  A
O2442     Co2450   1.952       .  S
O2443      C2455   1.245       .  A
O2443     Co2448   1.960       .  S
O2444      C2454   1.256       .  A
O2444     Co2447   2.015       .  S
O2445      C2452   1.256       .  A
O2445     Co2450   1.965       .  S
O2446      C2453   1.253       .  A
O2446     Co2449   1.948       .  S
Co2447     O2451   1.979       .  S
Co2448     O2451   1.980       .  S
Co2449     O2451   2.113       .  S
Co2450     O2451   2.114       .  S
C2452      C2509   1.486       .  S
C2453      C2569   1.498       .  S
C2454      C2620   1.488       .  S
C2455      C2500   1.461       .  S
O2456      C2464   1.269       .  A
O2456     Co2476   1.980       .  S
O2457      C2465   1.253       .  A
O2457     Co2477   1.952       .  S
O2458      C2466   1.270       .  A
O2458     Co2478   2.035       .  S
O2459      C2467   1.289       .  A
O2459     Co2479   2.094       .  S
O2460      C2466   1.242       .  A
O2460     Co2477   1.915       .  S
O2461      C2467   1.262       .  A
O2461     Co2476   1.867       .  S
O2462      C2465   1.270       .  A
O2462     Co2479   2.031       .  S
O2463      C2464   1.278       .  A
O2463     Co2478   2.036       .  S
C2464      C2593   1.505       .  S
C2465      C2629   1.471       .  S
C2466      C2752   1.470       .  S
C2467      C3412   1.442       .  S
O2468      C2481   1.298       .  A
O2468     Co2476   2.109       .  S
O2469      C2482   1.274       .  A
O2469     Co2477   2.025       .  S
O2470      C2483   1.249       .  A
O2470     Co2478   1.969       .  S
O2471      C2484   1.270       .  A
O2471     Co2479   1.989       .  S
O2472      C2484   1.270       .  A
O2472     Co2477   2.001       .  S
O2473      C2483   1.263       .  A
O2473     Co2476   2.019       .  S
O2474      C2481   1.272       .  A
O2474     Co2479   1.889       .  S
O2475      C2482   1.251       .  A
O2475     Co2478   1.903       .  S
Co2476     O2480   1.981       .  S
Co2477     O2480   2.011       .  S
Co2478     O2480   2.047       .  S
Co2479     O2480   2.009       .  S
C2481      C2644   1.484       .  S
C2482      C2497   1.472       .  S
C2483      C2761   1.476       .  S
C2484      C2584   1.482       .  S
C2485      C2486   1.401       .  A
C2485      C2490   1.403       .  A
C2486      C2487   1.392       .  A
C2486      H2495   1.085       .  S
C2487      C2488   1.407       .  A
C2487      S2491   1.806       .  S
C2488      C3391   1.442   1_545  S
C2488      C2489   1.399       .  A
C2489      C2490   1.388       .  A
C2489      H2496   1.084       .  S
C2490      S2492   1.798       .  S
S2491      H3418   1.403   1_545  S
S2492      H2493   1.403       .  S
H2494      S3415   1.403       .  S
C2497      C2498   1.415       .  A
C2497      C2502   1.408       .  A
C2498      C2499   1.385       .  A
C2498      H2507   1.084       .  S
C2499      C2500   1.400       .  A
C2499      S2503   1.804       .  S
C2500      C2501   1.410       .  A
C2501      C2502   1.392       .  A
C2501      H2508   1.084       .  S
C2502      S2504   1.800       .  S
S2503      H2506   1.408       .  S
S2504      H2505   1.408       .  S
C2509      C2510   1.403       .  A
C2509      C2514   1.425       .  A
C2510      C2511   1.389       .  A
C2510      H2519   1.083       .  S
C2511      C2512   1.412       .  A
C2511      S2515   1.801       .  S
C2512      C2513   1.398       .  A
C2513      C2514   1.403       .  A
C2513      H2520   1.084       .  S
C2514      S2516   1.801       .  S
S2515      H2518   1.399       .  S
S2516      H2517   1.408       .  S
C2521      C2522   1.406       .  A
C2521      C2526   1.416       .  A
C2522      C2523   1.402       .  A
C2522      H2531   1.084       .  S
C2523      S2527   1.802       .  S
C2524      C2525   1.411       .  A
C2525      H2532   1.083       .  S
C2533      C3458   1.405       .  A
C2534      C3457   1.405   1_545  A
C2534      C2535   1.391       .  A
C2534      H2543   1.084       .  S
C2535      S2539   1.803       .  S
C2536      C3461   1.403   1_545  A
C2537      C3460   1.403       .  A
C2537      C2538   1.385       .  A
C2537      H2544   1.084       .  S
C2538      S2540   1.800       .  S
S2539      H2542   1.408       .  S
C2545      C3470   1.418       .  A
C2545      C2550   1.414       .  A
C2546      C3469   1.418   1_545  A
C2546      C2547   1.393       .  A
C2546      H2555   1.081       .  S
C2547      C2548   1.403       .  A
C2547      S2551   1.812       .  S
C2548      C2549   1.413   1_545  A
C2549      C3474   1.413       .  A
C2549      H3480   1.083       .  S
C2550      C3473   1.413       .  A
C2550      S2552   1.799       .  S
S2551      H2554   1.406       .  S
S2552      H2553   1.407       .  S
H2556      C3473   1.083       .  S
C2557      C3303   1.505       .  S
C2557      C2558   1.414       .  A
C2557      C2562   1.419       .  A
C2558      C2559   1.410       .  A
C2558      H2567   1.083       .  S
C2559      C2560   1.409       .  A
C2559      S2563   1.800       .  S
C2560      C2561   1.405       .  A
C2561      C2562   1.404       .  A
C2561      H2568   1.082       .  S
C2562      S2564   1.801       .  S
S2563      H2566   1.406       .  S
S2564      H2565   1.408       .  S
C2569      C2570   1.419       .  A
C2569      C2574   1.404       .  A
C2570      C2571   1.413       .  A
C2570      H2579   1.084       .  S
C2571      C2572   1.414       .  A
C2571      S2575   1.805       .  S
C2572      C2573   1.419       .  A
C2573      C2574   1.401       .  A
C2573      H2580   1.079       .  S
C2574      S2576   1.803       .  S
S2575      H2578   1.399       .  S
S2576      H2577   1.407       .  S
C2581      C2582   1.403       .  A
C2581      C2586   1.407       .  A
C2582      C2583   1.406       .  A
C2582      H2591   1.081       .  S
C2583      C2584   1.414       .  A
C2583      S2587   1.798       .  S
C2584      C2585   1.407       .  A
C2585      C2586   1.396       .  A
C2585      H2592   1.084       .  S
C2586      S2588   1.802       .  S
S2587      H2590   1.402       .  S
S2588      H2589   1.405       .  S
C2593      C2594   1.409       .  A
C2593      C2598   1.418       .  A
C2594      C2595   1.406       .  A
C2594      H2603   1.083       .  S
C2595      C2596   1.419       .  A
C2596      C2597   1.409       .  A
C2597      C2598   1.405       .  A
C2597      H2604   1.082       .  S
C2598      S2600   1.801       .  S
S2599      H2602   1.407       .  S
S2600      H2601   1.406       .  S
C2606      H2615   1.083       .  S
C2607      C2608   1.421       .  A
C2608      C2609   1.414       .  A
C2610      S2612   1.804       .  S
C2617      C2622   1.419   1_455  A
C2618      C2619   1.413       .  A
C2618      H2627   1.083       .  S
C2619      C2620   1.413       .  A
C2619      S2623   1.802       .  S
C2621      C2622   1.396   1_455  A
C2621      H2628   1.085       .  S
C2622      S2624   1.811       .  S
S2623      H2626   1.407       .  S
S2624      H2625   1.391       .  S
C2629      C3554   1.400       .  A
C2630      C3553   1.400       .  A
C2630      C2631   1.402       .  A
C2630      H2639   1.084       .  S
C2631      S2635   1.798       .  S
C2632      C3557   1.401       .  A
C2633      C3556   1.401       .  A
C2633      C2634   1.397   1_556  A
C2633      H2640   1.085       .  S
C2634      S2636   1.802       .  S
S2635      H2638   1.403       .  S
C2641      C2642   1.399       .  A
C2641      C2646   1.412       .  A
C2642      C2643   1.389   1_545  A
C2642      H2651   1.085       .  S
C2643      C3568   1.417       .  A
C2643      S3571   1.798       .  S
C2644      C3567   1.417       .  A
C2644      C3569   1.409       .  A
C2645      C3568   1.409       .  A
C2645      C2646   1.406   1_565  A
C2645      H3576   1.084       .  S
C2646      S2648   1.801       .  S
S2647      C3567   1.798       .  S
S2647      H2650   1.398       .  S
S2648      H2649   1.404       .  S
H2652      C3569   1.084       .  S
C2653      C2654   1.397       .  A
C2653      C2658   1.420       .  A
C2654      C2655   1.384       .  A
C2654      H2663   1.084       .  S
C2655      C2656   1.422       .  A
C2655      S2659   1.807       .  S
C2656      C2657   1.402       .  A
C2657      C2658   1.397       .  A
C2657      H2664   1.084       .  S
C2658      S2660   1.803       .  S
S2659      H2662   1.407       .  S
S2660      H2661   1.398       .  S
C2665      C2666   1.405       .  A
C2665      C2670   1.409       .  A
C2666      C2667   1.398       .  A
C2666      H2675   1.084       .  S
C2667      C2668   1.416       .  A
C2667      S2671   1.802       .  S
C2668      C2669   1.409       .  A
C2669      C2670   1.396       .  A
C2669      H2676   1.083       .  S
C2670      S2672   1.802       .  S
S2671      H2674   1.408       .  S
S2672      H2673   1.401       .  S
C2678      C2679   1.396   1_556  A
C2678      H2687   1.084       .  S
C2679      S2683   1.802   1_554  S
C2680      C2681   1.397       .  A
C2682      S2684   1.809       .  S
C2689      C2694   1.420       .  A
C2690      C2691   1.404   1_455  A
C2690      H2699   1.083       .  S
C2691      C2692   1.418       .  A
C2691      S2695   1.802       .  S
C2693      C2694   1.393       .  A
C2693      H2700   1.083       .  S
C2694      S2696   1.804       .  S
S2695      H2698   1.406       .  S
S2696      H2697   1.408       .  S
C2701      C3273   1.485       .  S
C2701      C2702   1.411       .  A
C2701      C2706   1.418       .  A
C2702      C2703   1.387       .  A
C2702      H2711   1.084       .  S
C2703      C2704   1.403       .  A
C2703      S2707   1.802       .  S
C2704      C2705   1.401       .  A
C2705      C2706   1.401       .  A
C2705      H2712   1.084       .  S
C2706      S2708   1.798       .  S
S2707      H2710   1.406       .  S
S2708      H3633   1.398       .  S
H2709      S3632   1.398       .  S
C2713      C2714   1.403       .  A
C2713      C2718   1.418       .  A
C2714      C2715   1.383       .  A
C2714      H2723   1.084       .  S
C2715      C2716   1.410       .  A
C2715      S2719   1.796       .  S
C2716      C2717   1.404       .  A
C2717      C2718   1.401       .  A
C2717      H2724   1.084       .  S
C2718      S2720   1.799       .  S
S2719      H2722   1.405       .  S
S2720      H2721   1.408       .  S
C2725      C3331   1.517       .  S
C2725      C2726   1.417       .  A
C2725      C2730   1.422       .  A
C2726      C2727   1.414       .  A
C2726      H2735   1.083       .  S
C2727      C2728   1.413       .  A
C2727      S2731   1.803       .  S
C2728      C2729   1.406       .  A
C2729      C2730   1.407       .  A
C2729      H2736   1.083       .  S
C2730      S2732   1.801       .  S
S2732      H3657   1.407       .  S
H2733      S3656   1.407   1_545  S
C2737      C2738   1.412       .  A
C2737      C2742   1.423       .  A
C2738      C2739   1.407       .  A
C2738      H2747   1.084       .  S
C2739      C2740   1.415       .  A
C2739      S2743   1.803       .  S
C2740      C2741   1.407       .  A
C2741      C2742   1.414       .  A
C2741      H2748   1.084       .  S
C2742      S2744   1.799       .  S
S2743      H2746   1.405       .  S
S2744      H2745   1.408       .  S
C2749      C2750   1.394       .  A
C2749      C2754   1.410       .  A
C2750      H2759   1.086       .  S
C2751      C2752   1.421       .  A
C2751      S2755   1.807       .  S
C2752      C2753   1.404       .  A
C2753      H2760   1.083       .  S
C2754      S2756   1.798       .  S
S2755      H2758   1.404       .  S
S2756      H2757   1.405       .  S
C2761      C2762   1.400       .  A
C2761      C2766   1.416       .  A
C2762      C2763   1.400       .  A
C2762      H2771   1.084       .  S
C2763      C2764   1.415       .  A
C2763      S2767   1.798       .  S
C2764      C2765   1.404       .  A
C2765      C2766   1.402       .  A
C2765      H2772   1.084       .  S
C2766      S2768   1.803       .  S
S2767      H2770   1.407       .  S
S2768      H2769   1.403       .  S
O2773      C2781   1.264       .  A
O2773     Co2793   1.877       .  S
O2774      C2782   1.250       .  A
O2774     Co2794   1.943       .  S
O2775      C2783   1.262       .  A
O2775     Co2795   2.018       .  S
O2776      C2784   1.279       .  A
O2776     Co2796   2.046       .  S
O2777      C2783   1.249       .  A
O2777     Co2794   1.931       .  S
O2778      C2784   1.268       .  A
O2778     Co2793   1.988       .  S
O2779      C2782   1.274       .  A
O2779     Co2796   2.042       .  S
O2780      C2781   1.293       .  A
O2780     Co2795   2.111       .  S
C2781      C3166   1.461       .  S
C2782      C3139   1.485       .  S
C2783      C3211   1.450       .  S
O2785      C2798   1.262       .  A
O2785     Co2793   1.989       .  S
O2786      C2799   1.279       .  A
O2786     Co2794   2.031       .  S
O2787      C2800   1.271       .  A
O2787     Co2795   1.898       .  S
O2788      C2801   1.262       .  A
O2788     Co2796   1.949       .  S
O2789      C2801   1.268       .  A
O2789     Co2794   2.009       .  S
O2790      C2800   1.297       .  A
O2790     Co2793   2.111       .  S
O2791      C2798   1.260       .  A
O2791     Co2796   1.987       .  S
O2792      C2799   1.273       .  A
O2792     Co2795   1.990       .  S
Co2793     O2797   1.983       .  S
Co2794     O2797   2.014       .  S
Co2795     O2797   2.028       .  S
Co2796     O2797   2.049       .  S
C2798      C3154   1.492       .  S
C2799      C3199   1.513       .  S
C2800      C3226   1.483       .  S
C2801      C3175   1.479       .  S
O2802      C2810   1.256       .  A
O2802     Co2822   1.976       .  S
O2803      C2811   1.246       .  A
O2803     Co2823   1.945       .  S
O2804      C2812   1.255       .  A
O2805      C2813   1.275       .  A
O2805     Co2825   2.051       .  S
O2806     Co2823   1.958       .  S
O2807      C2813   1.254       .  A
O2807     Co2822   1.931       .  S
O2808      C2811   1.252       .  A
O2808     Co2825   1.993       .  S
O2809      C2810   1.271       .  A
O2809     Co2824   2.036       .  S
C2810      C3079   1.486   1_655  S
C2812      C3115   1.470       .  S
C2813      C3103   1.474       .  S
O2814      C2827   1.269       .  A
O2814     Co2822   2.017       .  S
O2815      C2828   1.300       .  A
O2815     Co2823   2.072       .  S
O2816      C2829   1.256       .  A
O2816     Co2824   1.971       .  S
O2817      C2830   1.300       .  A
O2817     Co2825   2.094       .  S
O2818      C2830   1.264       .  A
O2818     Co2823   1.877       .  S
O2819      C2829   1.266       .  A
O2819     Co2822   2.006       .  S
O2820      C2827   1.257       .  A
O2820     Co2825   1.956       .  S
O2821      C2828   1.272       .  A
O2821     Co2824   1.895       .  S
Co2822     O2826   2.054       .  S
Co2823     O2826   2.034       .  S
Co2824     O2826   1.937       .  S
Co2825     O2826   2.144       .  S
C2827      C3127   1.476       .  S
C2828      C3067   1.477       .  S
C2829      C3178   1.471       .  S
C2830      C3094   1.480       .  S
O2831      C2839   1.249       .  A
O2831     Co2851   2.045       .  S
O2832      C2840   1.256       .  A
O2832     Co2852   1.977       .  S
O2833      C2841   1.278   1_565  A
O2833     Co2853   2.016       .  S
O2834      C2842   1.258       .  A
O2834     Co2854   1.946       .  S
O2835      C2841   1.274       .  A
O2835     Co2852   1.999   1_545  S
O2836      C2842   1.282       .  A
O2836     Co2851   2.047       .  S
O2837      C2840   1.253       .  A
O2837     Co2854   1.952       .  S
O2838      C2839   1.232       .  A
O2838     Co2853   1.984       .  S
C2840      C2995   1.461       .  S
C2842      C3142   1.476       .  S
O2843      C2856   1.278       .  A
O2843     Co2851   2.008       .  S
O2844      C2857   1.250       .  A
O2844     Co2852   1.939       .  S
O2845      C2858   1.293       .  A
O2845     Co2853   1.969       .  S
O2846      C2859   1.275       .  A
O2846     Co2854   2.030       .  S
O2847      C2859   1.263       .  A
O2847     Co2852   1.968       .  S
O2848      C2858   1.302       .  A
O2848     Co2851   1.996       .  S
O2849      C2856   1.266       .  A
O2849     Co2854   1.987       .  S
O2850      C2857   1.266       .  A
O2850     Co2853   2.019       .  S
Co2851     O2855   2.108       .  S
Co2852     O2855   2.059       .  S
Co2853     O2855   1.983       .  S
Co2854     O2855   2.014       .  S
C2856      C3034   1.507       .  S
C2857      C3007   1.503       .  S
C2858      C3151   1.492       .  S
C2859      C3043   1.474       .  S
O2860      C2868   1.241       .  A
O2860     Co2880   1.943       .  S
O2861      C2869   1.271       .  A
O2861     Co2881   1.991       .  S
O2862      C2870   1.299       .  A
O2862     Co2882   2.111       .  S
O2863      C2871   1.272       .  A
O2863     Co2883   2.019       .  S
O2864      C2870   1.261       .  A
O2864     Co2881   1.902       .  S
O2865      C2871   1.248       .  A
O2865     Co2880   1.923       .  S
O2866      C2869   1.279       .  A
O2866     Co2883   2.045       .  S
O2867      C2868   1.258       .  A
O2867     Co2882   2.022       .  S
C2868      C2974   1.467       .  S
C2870      C3010   1.484       .  S
C2871      C3118   1.475       .  S
O2872      C2885   1.272       .  A
O2872     Co2880   2.027       .  S
O2873      C2886   1.295       .  A
O2873     Co2881   2.108       .  S
O2874      C2887   1.265       .  A
O2874     Co2882   1.976       .  S
O2875      C2888   1.255       .  A
O2875     Co2883   1.966       .  S
O2876      C2888   1.257       .  A
O2876     Co2881   1.961       .  S
O2877      C2887   1.284       .  A
O2877     Co2880   2.062       .  S
O2878      C2885   1.259       .  A
O2878     Co2883   1.967       .  S
O2879      C2886   1.264       .  A
O2879     Co2882   1.888       .  S
Co2880     O2884   2.016       .  S
Co2881     O2884   2.007       .  S
Co2882     O2884   2.026       .  S
Co2883     O2884   2.045       .  S
C2885      C2986   1.505       .  S
C2886      C3130   1.485       .  S
C2887      C3202   1.501       .  S
C2888      C2998   1.463       .  S
O2889      C2897   1.270       .  A
O2889     Co2909   1.850       .  S
O2890      C2898   1.275       .  A
O2890     Co2910   1.898       .  S
O2891      C2899   1.266       .  A
O2891     Co2911   2.026       .  S
O2892      C2900   1.267       .  A
O2892     Co2912   2.019       .  S
O2893      C2899   1.253       .  A
O2893     Co2910   1.958       .  S
O2894      C2900   1.263       .  A
O2894     Co2909   1.980       .  S
O2895      C2898   1.302       .  A
O2895     Co2912   2.101       .  S
O2896      C2897   1.300       .  A
O2896     Co2911   2.092       .  S
C2898      C2983   1.500       .  S
C2899      C3070   1.497       .  S
C2900      C3022   1.490       .  S
O2901      C2914   1.269       .  A
O2901     Co2909   2.005       .  S
O2902      C2915   1.285       .  A
O2902     Co2910   2.064       .  S
O2903      C2916   1.247       .  A
O2903     Co2911   1.956       .  S
O2904      C2917   1.249       .  A
O2904     Co2912   1.952       .  S
O2905      C2917   1.245       .  A
O2905     Co2910   1.960       .  S
O2906      C2916   1.256       .  A
O2906     Co2909   2.015       .  S
O2907      C2914   1.256       .  A
O2907     Co2912   1.965       .  S
O2908      C2915   1.253       .  A
O2908     Co2911   1.948       .  S
Co2909     O2913   1.979       .  S
Co2910     O2913   1.980       .  S
Co2911     O2913   2.112       .  S
Co2912     O2913   2.114       .  S
C2914      C2971   1.486       .  S
C2915      C3031   1.498       .  S
C2916      C3082   1.488       .  S
C2917      C2962   1.461       .  S
O2918      C2926   1.269       .  A
O2918     Co2938   1.980       .  S
O2919      C2927   1.253       .  A
O2919     Co2939   1.952       .  S
O2920      C2928   1.270       .  A
O2920     Co2940   2.035       .  S
O2921      C2929   1.289       .  A
O2921     Co2941   2.094       .  S
O2922      C2928   1.242       .  A
O2922     Co2939   1.915       .  S
O2923      C2929   1.262       .  A
O2923     Co2938   1.867       .  S
O2924      C2927   1.270       .  A
O2924     Co2941   2.031       .  S
O2925      C2926   1.278       .  A
O2925     Co2940   2.036       .  S
C2926      C3055   1.505       .  S
C2927      C3091   1.471   1_565  S
C2928      C3214   1.470       .  S
O2930      C2943   1.298       .  A
O2930     Co2938   2.109       .  S
O2931      C2944   1.274       .  A
O2931     Co2939   2.025       .  S
O2932      C2945   1.249       .  A
O2932     Co2940   1.969       .  S
O2933      C2946   1.270       .  A
O2933     Co2941   1.989       .  S
O2934      C2946   1.270       .  A
O2934     Co2939   2.001       .  S
O2935      C2945   1.263       .  A
O2935     Co2938   2.019       .  S
O2936      C2943   1.272       .  A
O2936     Co2941   1.889       .  S
O2937      C2944   1.251       .  A
O2937     Co2940   1.903       .  S
Co2938     O2942   1.981       .  S
Co2939     O2942   2.011       .  S
Co2940     O2942   2.047       .  S
Co2941     O2942   2.009       .  S
C2943      C3106   1.484       .  S
C2944      C2959   1.472       .  S
C2945      C3223   1.476       .  S
C2946      C3046   1.482       .  S
C2947      C2948   1.401       .  A
C2947      C2952   1.403       .  A
C2948      C2949   1.392       .  A
C2948      H2957   1.085       .  S
C2949      C2950   1.407       .  A
C2949      S2953   1.806       .  S
C2950      C2951   1.399       .  A
C2951      C2952   1.388       .  A
C2951      H2958   1.084       .  S
C2952      S2954   1.798       .  S
S2954      H2955   1.403       .  S
C2959      C2960   1.415       .  A
C2959      C2964   1.408       .  A
C2960      C2961   1.385       .  A
C2960      H2969   1.084       .  S
C2961      C2962   1.400       .  A
C2961      S2965   1.804       .  S
C2962      C2963   1.410       .  A
C2963      C2964   1.392       .  A
C2963      H2970   1.084       .  S
C2964      S2966   1.800       .  S
S2965      H2968   1.408       .  S
S2966      H2967   1.408       .  S
C2971      C2972   1.403       .  A
C2971      C2976   1.425       .  A
C2972      C2973   1.389       .  A
C2972      H2981   1.083       .  S
C2973      C2974   1.412       .  A
C2973      S2977   1.801       .  S
C2974      C2975   1.398       .  A
C2975      C2976   1.403       .  A
C2975      H2982   1.084       .  S
C2976      S2978   1.801       .  S
S2977      H2980   1.399       .  S
S2978      H2979   1.408       .  S
C2983      C2984   1.406       .  A
C2983      C2988   1.416   1_554  A
C2984      C2985   1.402       .  A
C2984      H2993   1.084       .  S
C2985      C3448   1.422   1_554  A
C2985      S2989   1.802       .  S
C2986      C3447   1.422       .  A
C2986      C2987   1.411       .  A
C2987      C3450   1.408       .  A
C2987      H2994   1.083       .  S
C2988      C3449   1.408       .  A
C2988      S3452   1.801       .  S
S2989      H3454   1.407   1_554  S
S2990      C3450   1.801       .  S
S2990      H3453   1.408       .  S
H2991      S3452   1.408   1_554  S
H2992      S3451   1.407       .  S
C2995      C3462   1.410   1_554  A
C2996      C2997   1.391   1_554  A
C2996      H3005   1.084       .  S
C2997      C3460   1.409       .  A
C2997      S3001   1.803       .  S
C2998      C3459   1.409       .  A
C2999      C3000   1.385       .  A
C2999      H3006   1.084       .  S
C3000      C3457   1.410       .  A
C3000      S3002   1.800       .  S
S3001      H3004   1.408       .  S
S3002      H3465   1.408       .  S
H3003      S3464   1.408   1_554  S
C3007      C3012   1.414       .  A
C3008      C3009   1.393       .  A
C3008      H3017   1.081       .  S
C3009      C3010   1.403       .  A
C3009      S3013   1.812       .  S
C3010      C3011   1.413       .  A
C3012      S3014   1.799       .  S
S3013      H3016   1.406       .  S
S3014      H3015   1.407       .  S
C3019      C3020   1.414       .  A
C3019      C3024   1.419       .  A
C3020      C3021   1.410       .  A
C3020      H3029   1.083       .  S
C3021      C3022   1.409       .  A
C3021      S3025   1.800       .  S
C3022      C3023   1.405       .  A
C3023      C3024   1.404       .  A
C3023      H3030   1.082       .  S
C3024      S3026   1.801       .  S
S3025      H3028   1.406       .  S
S3026      H3027   1.408       .  S
C3031      C3032   1.419       .  A
C3031      C3036   1.404       .  A
C3032      C3033   1.413       .  A
C3032      H3041   1.084       .  S
C3033      C3034   1.414       .  A
C3033      S3037   1.805       .  S
C3034      C3035   1.419       .  A
C3035      C3036   1.401       .  A
C3035      H3042   1.079       .  S
C3036      S3038   1.803       .  S
S3037      H3040   1.399       .  S
S3038      H3039   1.407       .  S
C3043      C3044   1.403       .  A
C3043      C3048   1.407       .  A
C3044      C3045   1.406       .  A
C3044      H3053   1.081       .  S
C3045      C3046   1.414       .  A
C3045      S3049   1.798       .  S
C3046      C3047   1.407       .  A
C3047      C3048   1.396       .  A
C3047      H3054   1.084       .  S
C3048      S3050   1.802       .  S
S3049      H3052   1.402       .  S
S3050      H3051   1.405       .  S
C3055      C3056   1.409       .  A
C3055      C3060   1.418       .  A
C3056      C3057   1.406       .  A
C3056      H3065   1.083       .  S
C3057      C3058   1.419       .  A
C3058      C3059   1.409       .  A
C3059      C3060   1.405       .  A
C3059      H3066   1.082       .  S
C3060      S3062   1.801       .  S
S3061      H3064   1.407       .  S
S3062      H3063   1.406       .  S
C3067      C3534   1.407       .  A
C3068      C3531   1.400       .  A
C3068      H3077   1.083       .  S
C3069      C3530   1.400   1_554  A
C3069      C3070   1.421       .  A
C3069      S3535   1.812       .  S
C3070      C3071   1.414       .  A
C3072      C3529   1.407   1_554  A
C3072      S3074   1.804       .  S
S3073      C3531   1.812       .  S
S3073      H3538   1.407       .  S
S3074      H3537   1.406   1_554  S
H3075      S3536   1.406       .  S
H3076      S3535   1.407   1_556  S
C3079      C3084   1.419   1_455  A
C3080      C3081   1.413       .  A
C3080      H3089   1.083       .  S
C3081      C3082   1.413       .  A
C3081      S3085   1.802       .  S
C3083      C3084   1.396   1_455  A
C3083      H3090   1.085       .  S
C3084      S3086   1.811       .  S
S3085      H3088   1.407       .  S
S3086      H3087   1.391       .  S
C3091      C3558   1.414   1_545  A
C3092      C3093   1.402       .  A
C3092      H3101   1.084       .  S
C3093      C3556   1.417   1_554  A
C3093      S3097   1.798       .  S
C3094      C3555   1.417       .  A
C3095      C3096   1.397   1_545  A
C3095      H3102   1.085       .  S
C3096      C3553   1.414   1_565  A
C3096      S3098   1.802       .  S
S3097      H3100   1.403       .  S
S3098      H3561   1.400       .  S
H3099      S3560   1.400       .  S
C3103      C3104   1.399       .  A
C3103      C3108   1.412       .  A
C3104      C3105   1.389       .  A
C3104      H3113   1.085       .  S
C3107      C3108   1.406       .  A
C3108      S3110   1.801       .  S
S3109      H3112   1.398       .  S
S3110      H3111   1.404       .  S
C3115      C3116   1.397       .  A
C3115      C3120   1.420       .  A
C3116      C3117   1.384       .  A
C3116      H3125   1.084       .  S
C3117      C3118   1.422       .  A
C3117      S3121   1.807       .  S
C3118      C3119   1.402       .  A
C3119      C3120   1.397       .  A
C3119      H3126   1.084       .  S
C3120      S3122   1.803       .  S
S3121      H3124   1.407       .  S
S3122      H3123   1.398       .  S
C3127      C3128   1.405       .  A
C3127      C3132   1.409       .  A
C3128      C3129   1.398       .  A
C3128      H3137   1.084       .  S
C3129      C3130   1.416       .  A
C3129      S3133   1.802       .  S
C3130      C3131   1.409       .  A
C3131      C3132   1.396       .  A
C3131      H3138   1.083       .  S
C3132      S3134   1.802       .  S
S3133      H3136   1.408       .  S
S3134      H3135   1.401       .  S
C3139      C3606   1.424       .  A
C3140      C3141   1.396       .  A
C3140      H3149   1.084       .  S
C3141      C3604   1.420       .  A
C3141      S3145   1.802       .  S
C3142      C3603   1.420       .  A
C3142      C3143   1.397       .  A
C3144      C3601   1.424   1_554  A
C3144      S3146   1.809       .  S
S3145      H3610   1.392       .  S
S3146      H3609   1.406       .  S
H3147      S3608   1.406       .  S
H3148      S3607   1.392   1_554  S
C3151      C3156   1.420       .  A
C3152      C3153   1.404   1_455  A
C3152      H3161   1.083       .  S
C3153      C3154   1.418       .  A
C3153      S3157   1.802       .  S
C3155      C3156   1.393       .  A
C3155      H3162   1.083       .  S
C3156      S3158   1.804       .  S
S3157      H3160   1.406       .  S
S3158      H3159   1.408       .  S
C3163      C3164   1.411       .  A
C3163      C3168   1.419       .  A
C3164      C3165   1.387       .  A
C3164      H3173   1.084   1_565  S
C3165      C3166   1.403       .  A
C3165      S3169   1.802       .  S
C3166      C3167   1.401       .  A
C3167      C3168   1.401       .  A
C3167      H3174   1.084       .  S
C3168      S3170   1.798       .  S
S3169      H3172   1.406       .  S
C3175      C3176   1.403       .  A
C3175      C3180   1.418       .  A
C3176      C3177   1.383       .  A
C3176      H3185   1.084       .  S
C3177      C3178   1.410       .  A
C3177      S3181   1.796       .  S
C3178      C3179   1.404       .  A
C3179      C3180   1.401       .  A
C3179      H3186   1.084       .  S
C3180      S3182   1.799       .  S
S3181      H3184   1.405       .  S
S3182      H3183   1.408       .  S
C3187      C3188   1.417       .  A
C3187      C3192   1.422       .  A
C3188      C3189   1.414       .  A
C3188      H3197   1.083       .  S
C3189      C3190   1.413       .  A
C3189      S3193   1.803       .  S
C3190      C3191   1.406       .  A
C3191      C3192   1.407       .  A
C3191      H3198   1.083       .  S
C3192      S3194   1.801       .  S
C3199      C3200   1.412       .  A
C3199      C3204   1.423       .  A
C3200      C3201   1.407       .  A
C3200      H3209   1.084       .  S
C3201      C3202   1.415       .  A
C3201      S3205   1.803       .  S
C3202      C3203   1.407       .  A
C3203      C3204   1.414       .  A
C3203      H3210   1.084       .  S
C3204      S3206   1.799       .  S
S3205      H3208   1.405       .  S
S3206      H3207   1.408       .  S
C3211      C3212   1.394       .  A
C3211      C3216   1.410       .  A
C3212      C3675   1.384       .  A
C3212      H3221   1.086       .  S
C3213      C3674   1.384       .  A
C3213      C3214   1.421   1_556  A
C3213      S3217   1.807   1_556  S
C3214      C3215   1.404       .  A
C3215      C3678   1.401   1_554  A
C3215      H3222   1.083       .  S
C3216      C3677   1.401       .  A
C3216      S3218   1.798       .  S
S3217      H3220   1.404       .  S
S3218      H3219   1.405       .  S
C3223      C3224   1.400       .  A
C3223      C3228   1.416       .  A
C3224      C3225   1.400       .  A
C3224      H3233   1.084       .  S
C3225      C3226   1.415       .  A
C3225      S3229   1.798       .  S
C3226      C3227   1.404       .  A
C3227      C3228   1.402       .  A
C3227      H3234   1.084       .  S
C3228      S3230   1.803       .  S
S3229      H3232   1.407       .  S
S3230      H3231   1.403       .  S
O3235      C3243   1.264       .  A
O3235     Co3255   1.877       .  S
O3236      C3244   1.250       .  A
O3236     Co3256   1.943       .  S
O3237      C3245   1.262       .  A
O3237     Co3257   2.018       .  S
O3238      C3246   1.279       .  A
O3238     Co3258   2.046       .  S
O3239      C3245   1.249       .  A
O3239     Co3256   1.931       .  S
O3240      C3246   1.268       .  A
O3240     Co3255   1.988       .  S
O3241      C3244   1.274       .  A
O3241     Co3258   2.042       .  S
O3242      C3243   1.293       .  A
O3242     Co3257   2.111       .  S
C3243      C3628   1.461       .  S
C3244      C3601   1.485       .  S
C3245      C3673   1.450       .  S
O3247      C3260   1.262       .  A
O3247     Co3255   1.989       .  S
O3248      C3261   1.279       .  A
O3248     Co3256   2.031       .  S
O3249      C3262   1.271       .  A
O3249     Co3257   1.898       .  S
O3250      C3263   1.262       .  A
O3250     Co3258   1.949       .  S
O3251      C3263   1.268       .  A
O3251     Co3256   2.009       .  S
O3252      C3262   1.297       .  A
O3252     Co3255   2.111       .  S
O3253      C3260   1.260       .  A
O3253     Co3258   1.987       .  S
O3254      C3261   1.273       .  A
O3254     Co3257   1.990       .  S
Co3255     O3259   1.983       .  S
Co3256     O3259   2.014       .  S
Co3257     O3259   2.028       .  S
Co3258     O3259   2.049       .  S
C3260      C3616   1.492       .  S
C3261      C3661   1.513       .  S
C3262      C3688   1.483       .  S
C3263      C3637   1.479       .  S
O3264      C3272   1.256       .  A
O3264     Co3284   1.976       .  S
O3265      C3273   1.246       .  A
O3265     Co3285   1.945       .  S
O3266      C3274   1.255       .  A
O3267      C3275   1.275       .  A
O3267     Co3287   2.051       .  S
O3268     Co3285   1.958       .  S
O3269      C3275   1.254       .  A
O3269     Co3284   1.931       .  S
O3270      C3273   1.252       .  A
O3270     Co3287   1.993       .  S
O3271      C3272   1.271       .  A
O3271     Co3286   2.036       .  S
C3272      C3541   1.486   1_655  S
C3274      C3577   1.470       .  S
C3275      C3565   1.474       .  S
O3276      C3289   1.269       .  A
O3276     Co3284   2.017       .  S
O3277      C3290   1.300       .  A
O3277     Co3285   2.072       .  S
O3278      C3291   1.256       .  A
O3278     Co3286   1.971       .  S
O3279      C3292   1.300       .  A
O3279     Co3287   2.094       .  S
O3280      C3292   1.264       .  A
O3280     Co3285   1.877       .  S
O3281      C3291   1.266       .  A
O3281     Co3284   2.006       .  S
O3282      C3289   1.257       .  A
O3282     Co3287   1.956       .  S
O3283      C3290   1.272       .  A
O3283     Co3286   1.895       .  S
Co3284     O3288   2.054       .  S
Co3285     O3288   2.034       .  S
Co3286     O3288   1.938       .  S
Co3287     O3288   2.144       .  S
C3289      C3589   1.476       .  S
C3290      C3529   1.477       .  S
C3291      C3640   1.471       .  S
C3292      C3556   1.480       .  S
O3293      C3301   1.249       .  A
O3293     Co3313   2.045       .  S
O3294      C3302   1.256       .  A
O3294     Co3314   1.977       .  S
O3295      C3303   1.278   1_565  A
O3295     Co3315   2.016       .  S
O3296      C3304   1.258       .  A
O3296     Co3316   1.946       .  S
O3297      C3303   1.274       .  A
O3297     Co3314   1.999   1_545  S
O3298      C3304   1.282       .  A
O3298     Co3313   2.047       .  S
O3299      C3302   1.253       .  A
O3299     Co3316   1.952       .  S
O3300      C3301   1.232       .  A
O3300     Co3315   1.984       .  S
C3302      C3457   1.461       .  S
C3304      C3604   1.476       .  S
O3305      C3318   1.278       .  A
O3305     Co3313   2.008       .  S
O3306      C3319   1.250       .  A
O3306     Co3314   1.939       .  S
O3307      C3320   1.293       .  A
O3307     Co3315   1.969       .  S
O3308      C3321   1.275       .  A
O3308     Co3316   2.030       .  S
O3309      C3321   1.263       .  A
O3309     Co3314   1.968       .  S
O3310      C3320   1.302       .  A
O3310     Co3313   1.996       .  S
O3311      C3318   1.266       .  A
O3311     Co3316   1.987       .  S
O3312      C3319   1.266       .  A
O3312     Co3315   2.019       .  S
Co3313     O3317   2.108       .  S
Co3314     O3317   2.059       .  S
Co3315     O3317   1.983       .  S
Co3316     O3317   2.014       .  S
C3318      C3496   1.507       .  S
C3319      C3469   1.503       .  S
C3320      C3613   1.492       .  S
C3321      C3505   1.474       .  S
O3322      C3330   1.241       .  A
O3322     Co3342   1.943       .  S
O3323      C3331   1.271       .  A
O3323     Co3343   1.991       .  S
O3324      C3332   1.299       .  A
O3324     Co3344   2.111       .  S
O3325      C3333   1.272       .  A
O3325     Co3345   2.019       .  S
O3326      C3332   1.261       .  A
O3326     Co3343   1.902       .  S
O3327      C3333   1.248       .  A
O3327     Co3342   1.923       .  S
O3328      C3331   1.279       .  A
O3328     Co3345   2.045       .  S
O3329      C3330   1.258       .  A
O3329     Co3344   2.022       .  S
C3330      C3436   1.467       .  S
C3332      C3472   1.484       .  S
C3333      C3580   1.475       .  S
O3334      C3347   1.272       .  A
O3334     Co3342   2.027       .  S
O3335      C3348   1.295       .  A
O3335     Co3343   2.108       .  S
O3336      C3349   1.265       .  A
O3336     Co3344   1.976       .  S
O3337      C3350   1.255       .  A
O3337     Co3345   1.966       .  S
O3338      C3350   1.257       .  A
O3338     Co3343   1.961       .  S
O3339      C3349   1.284       .  A
O3339     Co3342   2.062       .  S
O3340      C3347   1.259       .  A
O3340     Co3345   1.967       .  S
O3341      C3348   1.264       .  A
O3341     Co3344   1.888       .  S
Co3342     O3346   2.016       .  S
Co3343     O3346   2.007       .  S
Co3344     O3346   2.026       .  S
Co3345     O3346   2.045       .  S
C3347      C3448   1.505       .  S
C3348      C3592   1.485       .  S
C3349      C3664   1.501       .  S
C3350      C3460   1.463       .  S
O3351      C3359   1.270       .  A
O3351     Co3371   1.850       .  S
O3352      C3360   1.275       .  A
O3352     Co3372   1.898       .  S
O3353      C3361   1.266       .  A
O3353     Co3373   2.026       .  S
O3354      C3362   1.267       .  A
O3354     Co3374   2.019       .  S
O3355      C3361   1.253       .  A
O3355     Co3372   1.958       .  S
O3356      C3362   1.263       .  A
O3356     Co3371   1.980       .  S
O3357      C3360   1.302       .  A
O3357     Co3374   2.101       .  S
O3358      C3359   1.300       .  A
O3358     Co3373   2.092       .  S
C3360      C3445   1.500       .  S
C3361      C3532   1.497       .  S
C3362      C3484   1.490       .  S
O3363      C3376   1.269       .  A
O3363     Co3371   2.005       .  S
O3364      C3377   1.285       .  A
O3364     Co3372   2.064       .  S
O3365      C3378   1.247       .  A
O3365     Co3373   1.956       .  S
O3366      C3379   1.249       .  A
O3366     Co3374   1.952       .  S
O3367      C3379   1.245       .  A
O3367     Co3372   1.960       .  S
O3368      C3378   1.256       .  A
O3368     Co3371   2.015       .  S
O3369      C3376   1.256       .  A
O3369     Co3374   1.965       .  S
O3370      C3377   1.253       .  A
O3370     Co3373   1.948       .  S
Co3371     O3375   1.979       .  S
Co3372     O3375   1.980       .  S
Co3373     O3375   2.113       .  S
Co3374     O3375   2.114       .  S
C3376      C3433   1.486       .  S
C3377      C3493   1.498       .  S
C3378      C3544   1.488       .  S
C3379      C3424   1.461       .  S
O3380      C3388   1.269       .  A
O3380     Co3400   1.980       .  S
O3381      C3389   1.253       .  A
O3381     Co3401   1.952       .  S
O3382      C3390   1.270       .  A
O3382     Co3402   2.035       .  S
O3383      C3391   1.289       .  A
O3383     Co3403   2.094       .  S
O3384      C3390   1.242       .  A
O3384     Co3401   1.915       .  S
O3385      C3391   1.262       .  A
O3385     Co3400   1.867       .  S
O3386      C3389   1.270       .  A
O3386     Co3403   2.031       .  S
O3387      C3388   1.278       .  A
O3387     Co3402   2.036       .  S
C3388      C3517   1.505       .  S
C3389      C3553   1.471   1_565  S
C3390      C3676   1.470       .  S
O3392      C3405   1.298       .  A
O3392     Co3400   2.109       .  S
O3393      C3406   1.274       .  A
O3393     Co3401   2.025       .  S
O3394      C3407   1.249       .  A
O3394     Co3402   1.969       .  S
O3395      C3408   1.270       .  A
O3395     Co3403   1.989       .  S
O3396      C3408   1.270       .  A
O3396     Co3401   2.001       .  S
O3397      C3407   1.263       .  A
O3397     Co3400   2.019       .  S
O3398      C3405   1.272       .  A
O3398     Co3403   1.889       .  S
O3399      C3406   1.251       .  A
O3399     Co3402   1.903       .  S
Co3400     O3404   1.981       .  S
Co3401     O3404   2.011       .  S
Co3402     O3404   2.047       .  S
Co3403     O3404   2.009       .  S
C3405      C3568   1.484       .  S
C3406      C3421   1.472       .  S
C3407      C3685   1.476       .  S
C3408      C3508   1.482       .  S
C3409      C3410   1.401       .  A
C3409      C3414   1.403       .  A
C3410      C3411   1.392       .  A
C3410      H3419   1.085       .  S
C3411      C3412   1.407       .  A
C3411      S3415   1.806       .  S
C3412      C3413   1.399       .  A
C3413      C3414   1.388       .  A
C3413      H3420   1.084       .  S
C3414      S3416   1.798       .  S
S3416      H3417   1.403       .  S
C3421      C3422   1.415       .  A
C3421      C3426   1.408       .  A
C3422      C3423   1.385       .  A
C3422      H3431   1.084       .  S
C3423      C3424   1.400       .  A
C3423      S3427   1.804       .  S
C3424      C3425   1.410       .  A
C3425      C3426   1.392       .  A
C3425      H3432   1.084       .  S
C3426      S3428   1.800       .  S
S3427      H3430   1.408       .  S
S3428      H3429   1.408       .  S
C3433      C3434   1.403       .  A
C3433      C3438   1.425       .  A
C3434      C3435   1.389       .  A
C3434      H3443   1.083       .  S
C3435      C3436   1.412       .  A
C3435      S3439   1.801       .  S
C3436      C3437   1.398       .  A
C3437      C3438   1.403       .  A
C3437      H3444   1.084       .  S
C3438      S3440   1.801       .  S
S3439      H3442   1.399       .  S
S3440      H3441   1.408       .  S
C3445      C3446   1.406       .  A
C3445      C3450   1.416       .  A
C3446      C3447   1.402       .  A
C3446      H3455   1.084       .  S
C3447      S3451   1.802       .  S
C3448      C3449   1.411       .  A
C3449      H3456   1.083       .  S
C3458      C3459   1.391       .  A
C3458      H3467   1.084       .  S
C3459      S3463   1.803       .  S
C3461      C3462   1.385       .  A
C3461      H3468   1.084       .  S
C3462      S3464   1.800       .  S
S3463      H3466   1.408       .  S
C3469      C3474   1.414       .  A
C3470      C3471   1.393       .  A
C3470      H3479   1.081       .  S
C3471      C3472   1.403       .  A
C3471      S3475   1.812       .  S
C3472      C3473   1.413       .  A
C3474      S3476   1.799       .  S
S3475      H3478   1.406       .  S
S3476      H3477   1.407       .  S
C3481      C3482   1.414       .  A
C3481      C3486   1.419       .  A
C3482      C3483   1.410       .  A
C3482      H3491   1.083       .  S
C3483      C3484   1.409       .  A
C3483      S3487   1.800       .  S
C3484      C3485   1.405       .  A
C3485      C3486   1.404       .  A
C3485      H3492   1.082       .  S
C3486      S3488   1.801       .  S
S3487      H3490   1.406       .  S
S3488      H3489   1.408       .  S
C3493      C3494   1.419       .  A
C3493      C3498   1.404       .  A
C3494      C3495   1.413       .  A
C3494      H3503   1.084       .  S
C3495      C3496   1.414       .  A
C3495      S3499   1.805       .  S
C3496      C3497   1.419       .  A
C3497      C3498   1.401       .  A
C3497      H3504   1.079       .  S
C3498      S3500   1.803       .  S
S3499      H3502   1.399       .  S
S3500      H3501   1.407       .  S
C3505      C3506   1.403       .  A
C3505      C3510   1.407       .  A
C3506      C3507   1.406       .  A
C3506      H3515   1.081       .  S
C3507      C3508   1.414       .  A
C3507      S3511   1.798       .  S
C3508      C3509   1.407       .  A
C3509      C3510   1.396       .  A
C3509      H3516   1.084       .  S
C3510      S3512   1.802       .  S
S3511      H3514   1.402       .  S
S3512      H3513   1.405       .  S
C3517      C3518   1.409       .  A
C3517      C3522   1.418       .  A
C3518      C3519   1.406       .  A
C3518      H3527   1.083       .  S
C3519      C3520   1.419       .  A
C3520      C3521   1.409       .  A
C3521      C3522   1.405       .  A
C3521      H3528   1.082       .  S
C3522      S3524   1.801       .  S
S3523      H3526   1.407       .  S
S3524      H3525   1.406       .  S
C3530      H3539   1.083       .  S
C3531      C3532   1.421       .  A
C3532      C3533   1.414       .  A
C3534      S3536   1.804       .  S
C3541      C3546   1.419   1_455  A
C3542      C3543   1.413       .  A
C3542      H3551   1.083       .  S
C3543      C3544   1.413       .  A
C3543      S3547   1.802       .  S
C3545      C3546   1.396   1_455  A
C3545      H3552   1.085       .  S
C3546      S3548   1.811       .  S
S3547      H3550   1.407       .  S
S3548      H3549   1.391       .  S
C3554      C3555   1.402       .  A
C3554      H3563   1.084       .  S
C3555      S3559   1.798       .  S
C3557      C3558   1.397   1_546  A
C3557      H3564   1.085       .  S
C3558      S3560   1.802       .  S
S3559      H3562   1.403       .  S
C3565      C3566   1.399       .  A
C3565      C3570   1.412       .  A
C3566      C3567   1.389       .  A
C3566      H3575   1.085       .  S
C3569      C3570   1.406       .  A
C3570      S3572   1.801       .  S
S3571      H3574   1.398       .  S
S3572      H3573   1.404       .  S
C3577      C3578   1.397       .  A
C3577      C3582   1.420       .  A
C3578      C3579   1.384       .  A
C3578      H3587   1.084       .  S
C3579      C3580   1.422       .  A
C3579      S3583   1.807       .  S
C3580      C3581   1.402       .  A
C3581      C3582   1.397       .  A
C3581      H3588   1.084       .  S
C3582      S3584   1.803       .  S
S3583      H3586   1.407       .  S
S3584      H3585   1.398       .  S
C3589      C3590   1.405       .  A
C3589      C3594   1.409       .  A
C3590      C3591   1.398       .  A
C3590      H3599   1.084       .  S
C3591      C3592   1.416       .  A
C3591      S3595   1.802       .  S
C3592      C3593   1.409       .  A
C3593      C3594   1.396       .  A
C3593      H3600   1.083       .  S
C3594      S3596   1.802       .  S
S3595      H3598   1.408       .  S
S3596      H3597   1.401       .  S
C3602      C3603   1.396   1_556  A
C3602      H3611   1.084       .  S
C3603      S3607   1.802   1_554  S
C3604      C3605   1.397       .  A
C3606      S3608   1.809       .  S
C3613      C3618   1.420       .  A
C3614      C3615   1.404   1_455  A
C3614      H3623   1.083       .  S
C3615      C3616   1.418       .  A
C3615      S3619   1.802       .  S
C3617      C3618   1.393       .  A
C3617      H3624   1.083       .  S
C3618      S3620   1.804       .  S
S3619      H3622   1.406       .  S
S3620      H3621   1.408       .  S
C3625      C3626   1.411       .  A
C3625      C3630   1.419       .  A
C3626      C3627   1.387       .  A
C3626      H3635   1.084   1_565  S
C3627      C3628   1.403       .  A
C3627      S3631   1.802       .  S
C3628      C3629   1.401       .  A
C3629      C3630   1.401       .  A
C3629      H3636   1.084       .  S
C3630      S3632   1.798       .  S
S3631      H3634   1.406       .  S
C3637      C3638   1.403       .  A
C3637      C3642   1.418       .  A
C3638      C3639   1.383       .  A
C3638      H3647   1.084       .  S
C3639      C3640   1.410       .  A
C3639      S3643   1.796       .  S
C3640      C3641   1.404       .  A
C3641      C3642   1.401       .  A
C3641      H3648   1.084       .  S
C3642      S3644   1.799       .  S
S3643      H3646   1.405       .  S
S3644      H3645   1.408       .  S
C3649      C3650   1.417       .  A
C3649      C3654   1.422       .  A
C3650      C3651   1.414       .  A
C3650      H3659   1.083       .  S
C3651      C3652   1.413       .  A
C3651      S3655   1.803       .  S
C3652      C3653   1.406       .  A
C3653      C3654   1.407       .  A
C3653      H3660   1.083       .  S
C3654      S3656   1.801       .  S
C3661      C3662   1.412       .  A
C3661      C3666   1.423       .  A
C3662      C3663   1.407       .  A
C3662      H3671   1.084       .  S
C3663      C3664   1.415       .  A
C3663      S3667   1.803       .  S
C3664      C3665   1.407       .  A
C3665      C3666   1.414       .  A
C3665      H3672   1.084       .  S
C3666      S3668   1.799       .  S
S3667      H3670   1.405       .  S
S3668      H3669   1.408       .  S
C3673      C3674   1.394       .  A
C3673      C3678   1.410       .  A
C3674      H3683   1.086       .  S
C3675      C3676   1.421       .  A
C3675      S3679   1.807       .  S
C3676      C3677   1.404       .  A
C3677      H3684   1.083       .  S
C3678      S3680   1.798       .  S
S3679      H3682   1.404       .  S
S3680      H3681   1.405       .  S
C3685      C3686   1.400       .  A
C3685      C3690   1.416       .  A
C3686      C3687   1.400       .  A
C3686      H3695   1.084       .  S
C3687      C3688   1.415       .  A
C3687      S3691   1.798       .  S
C3688      C3689   1.404       .  A
C3689      C3690   1.402       .  A
C3689      H3696   1.084       .  S
C3690      S3692   1.803       .  S
S3691      H3694   1.407       .  S
S3692      H3693   1.403       .  S
