geometry optimzed in LAMMPS
_audit_creation_date              2020-11-30 
_audit_creation_method            'lammps2cif' 
_symmetry_space_group_name_H-M    'P1' 
_symmetry_Int_Tables_number       1 
_symmetry_cell_setting            triclinic 
loop_ 
_symmetry_equiv_pos_as_xyz 
  x,y,z 
_cell_length_a                    49.57435789 
_cell_length_b                    49.85618682368162 
_cell_length_c                    62.333624993166175 
_cell_angle_alpha                 90.3728750845801 
_cell_angle_beta                  89.76212136874982 
_cell_angle_gamma                 119.99107660070729 
loop_ 
_atom_site_label 
_atom_site_type_symbol 
_atom_site_fract_x 
_atom_site_fract_y 
_atom_site_fract_z 
_atom_site_charge 
O1          O  0.02248283  0.13690606  0.32699663    -0.88300
C2          C  0.09414178  0.18263960  0.28313397     0.87700
Mg3        Mg  0.01656129  0.15932353  0.35511550     1.58100
O4          O  0.10255776  0.13015563  0.31707428    -0.88100
O5          O  0.02771869  0.09770333  0.31653986    -0.75400
C6          C  0.15242932  0.22407209  0.39870075     0.92800
O7          O  0.05484713  0.20860642  0.31364928    -0.75200
O8          O  0.12723950  0.22437258  0.40025281    -0.82700
Mg9        Mg  0.02866063  0.16057969  0.29718888     1.58000
C10         C  0.19208332  0.16630724  0.34677714     0.92700
O11         O  0.00041331  0.11551682  0.27808482    -0.81000
H12         H  0.08960814  0.08788012  0.32834281    -0.06300
C13         C  0.14634845  0.22156044  0.33500838     0.87600
O14         O  0.04035057  0.13875388  0.37591747    -0.75500
O15         O  0.07243187  0.16056080  0.29238255    -0.88200
O16         O  0.17725647  0.15747878  0.32901773    -0.81100
C17         C  0.13497412  0.13297918  0.26530403     0.92800
C18         C  0.00944429  0.10613917  0.26203762     0.92600
Mg19       Mg  0.13465987  0.17158200  0.36574663     1.58000
O20         O  0.16097912  0.21911510  0.38078551    -0.81000
O21         O  0.11015576  0.12243930  0.35052125    -0.75200
O22         O  0.10606467  0.12477085  0.26584418    -0.81100
O23         O  0.48252630  0.15897216  0.29961059    -0.82800
O24         O  0.05795005  0.19845562  0.39898974    -0.81100
C25         C  0.10030578  0.11241219  0.33165579     0.87100
O26         O  0.08996520  0.16876963  0.36976308    -0.88200
O27         O  0.13861645  0.19382367  0.33605421    -0.88300
O28         O  0.13331306  0.23302932  0.34660075    -0.75400
Mg29       Mg  0.06793184  0.11530756  0.29165229     1.58000
O30         O  0.15330013  0.14821783  0.28057653    -0.82800
H31         H  0.99517047  0.09402502  0.33811111    -0.06500
O32         O  0.06000293  0.19982020  0.34730857    -0.88000
H33         H  0.07515404  0.24257414  0.33619184    -0.06300
H34         H  0.07403761  0.13274113  0.38976054    -0.06500
C35         C  0.06367349  0.21803292  0.33272753     0.87100
C36         C  0.01420546  0.10905992  0.32768327     0.87600
C37         C  0.06861065  0.14626157  0.37895874     0.87700
H38         H  0.16459768  0.23640925  0.32400569    -0.06500
O39         O  0.12224818  0.19053795  0.28715165    -0.75500
Mg40       Mg  0.09403405  0.21335700  0.37231599     1.58000
H41         H  0.08915897  0.19561181  0.27154077    -0.06500
C42         C  0.47324386  0.16869930  0.31530995     0.92700
O43         O  0.01164535  0.18443329  0.38514702    -0.82700
C44         C  0.03156959  0.19666443  0.40021573     0.92700
O45         O  0.03375596  0.10376455  0.26358146    -0.82700
Mg46       Mg  0.14613736  0.17164575  0.30930204     1.58200
O47         O  0.98732356  0.17556394  0.33620988    -0.81000
O48         O  0.18229770  0.17573565  0.36223851    -0.82700
C49         C  0.18750483  0.10201685  0.19204887     0.02300
C50         C  0.18666715  0.07319475  0.18953779     0.02300
C51         C  0.19474715  0.06565383  0.16981080    -0.18300
C52         C  0.20494915  0.08637814  0.15273085     0.02300
C53         C  0.20554255  0.11491668  0.15498254     0.02300
C54         C  0.19610495  0.12205601  0.17436757    -0.18300
H55         H  0.19521267  0.14329843  0.17563511     0.04300
H56         H  0.19194278  0.04285547  0.16757021     0.04300
C57         C  0.44353766  0.08467582  0.18125867     0.02300
C58         C  0.41382134  0.05801030  0.18070617     0.02300
C59         C  0.39594219  0.05026908  0.16187890    -0.18300
C60         C  0.40753212  0.06808021  0.14305757     0.02300
C61         C  0.43717597  0.09582497  0.14397606     0.02300
C62         C  0.45482838  0.10340710  0.16300915    -0.18300
H63         H  0.47730714  0.12444793  0.16376103     0.04300
H64         H  0.37279237  0.03019445  0.16195236     0.04300
O65         O  0.14438144  0.44497724  0.33615512    -0.88300
C66         C  0.07829812  0.43738218  0.37850342     0.87700
Mg67       Mg  0.14716455  0.46181578  0.30420467     1.58100
O68         O  0.06654793  0.36790803  0.35483995    -0.88100
O69         O  0.14091320  0.40495751  0.35256707    -0.75400
C70         C  0.00440469  0.38491129  0.26136062     0.92800
O71         O  0.11336633  0.48756159  0.33969767    -0.75200
O72         O  0.02914404  0.41136482  0.26047668    -0.82700
Mg73       Mg  0.14152722  0.47302441  0.36133668     1.58000
C74         C  0.47472044  0.30529766  0.33373032     0.92700
O75         O  0.17110330  0.46432299  0.38634998    -0.81000
H76         H  0.07930127  0.33633092  0.34896331    -0.06300
C77         C  0.01781340  0.40505683  0.32553905     0.87600
O78         O  0.12084882  0.41223542  0.29060827    -0.75500
O79         O  0.09954216  0.43310331  0.37226022    -0.88200
O80         O  0.99285056  0.31819493  0.35051881    -0.81100
C81         C  0.03990713  0.35332578  0.40878461     0.92800
C82         C  0.16568008  0.44606568  0.40211704     0.92600
Mg83       Mg  0.02849866  0.35803214  0.30293617     1.58000
O84         O  0.99923482  0.36673699  0.27723333    -0.81000
O85         O  0.05617747  0.34252819  0.32439996    -0.75200
O86         O  0.06858975  0.37359594  0.40648476    -0.81100
O87         O  0.18632751  0.01509154  0.35060226    -0.82800
O88         O  0.10382151  0.45806150  0.25736043    -0.81100
C89         C  0.06775172  0.34839955  0.34317628     0.87100
O90         O  0.07105269  0.39714566  0.29145178    -0.88200
O91         O  0.02688023  0.38643013  0.32854955    -0.88300
O92         O  0.02994918  0.42558779  0.31111361    -0.75400
Mg93       Mg  0.10311679  0.39226856  0.37815794     1.58000
O94         O  0.02047637  0.34829928  0.39395138    -0.82800
H95         H  0.17216319  0.42785558  0.32887464    -0.06500
O96         O  0.10432025  0.46257116  0.30913910    -0.88000
H97         H  0.09048183  0.49336166  0.31481792    -0.06300
H98         H  0.08720100  0.37091857  0.27885724    -0.06500
C99         C  0.10236991  0.48171103  0.32076315     0.87100
C100        C  0.15354675  0.42636370  0.33882151     0.87600
C101        C  0.09261652  0.39263273  0.28639921     0.87700
H102        H  0.99944729  0.40408479  0.33550527    -0.06500
O103        O  0.04989832  0.41765572  0.37503673    -0.75500
Mg104      Mg  0.06794679  0.43834866  0.28536009     1.58000
H105        H  0.08407970  0.45890046  0.38650883    -0.06500
C106        C  0.19381011  0.02788573  0.33224718     0.92700
O107        O  0.15112770  0.48040388  0.27154922    -0.82700
C108        C  0.13308142  0.47682528  0.25612102     0.92700
O109        O  0.14133815  0.41933007  0.40255532    -0.82700
Mg110      Mg  0.02400231  0.36850650  0.36084183     1.58200
O111        O  0.17860206  0.01467268  0.31539698    -0.81000
O112        O  0.48292526  0.31727674  0.31517332    -0.82700
O113        O  0.30512166  0.36015984  0.34054053    -0.88300
C114        C  0.36780853  0.42957734  0.37972803     0.87700
Mg115      Mg  0.31837997  0.35470875  0.30852207     1.58100
O116        O  0.30921285  0.44101663  0.35734817    -0.88100
O117        O  0.27070490  0.36718518  0.35768179    -0.75400
C118        C  0.37977261  0.49024935  0.26089751     0.92800
O119        O  0.37949332  0.38886788  0.34227155    -0.75200
O120        O  0.38127653  0.46557037  0.26172113    -0.82700
Mg121      Mg  0.33743116  0.36430318  0.36514085     1.58000
C122        C  0.33365745  0.02843492  0.33456400     0.92700
O123        O  0.30112621  0.33875181  0.39193093    -0.81000
H124        H  0.26454960  0.42911844  0.35359779    -0.06300
C125        C  0.39328797  0.48521381  0.32550140     0.87600
O126        O  0.29455374  0.38012438  0.29411233    -0.75500
O127        O  0.34180939  0.40818170  0.37453830    -0.88200
O128        O  0.33347453  0.51429337  0.34996906    -0.81100
C129        C  0.32550106  0.47182749  0.41005801     0.92800
C130        C  0.29008026  0.34662336  0.40773502     0.92600
Mg131      Mg  0.33356274  0.47328569  0.30434252     1.58000
O132        O  0.36987093  0.49890251  0.27696839    -0.81000
O133        O  0.29168709  0.44905742  0.32741765    -0.75200
O134        O  0.31784666  0.44336454  0.40875788    -0.81100
O135        O  0.33130949  0.31741595  0.35450502    -0.82800
O136        O  0.34908431  0.39445183  0.26187644    -0.81100
C137        C  0.28757187  0.43938325  0.34661280     0.87100
O138        O  0.32890139  0.42958000  0.29563460    -0.88200
O139        O  0.36586821  0.47761992  0.32906159    -0.88300
O140        O  0.40038805  0.47084774  0.31175968    -0.75400
Mg141      Mg  0.29836543  0.40670149  0.38181990     1.58000
O142        O  0.33813303  0.48998698  0.39437437    -0.82800
H143        H  0.25946451  0.33397287  0.33488406    -0.06500
O144        O  0.36153567  0.39725041  0.31271726    -0.88000
H145        H  0.40629279  0.40922637  0.31601940    -0.06300
H146        H  0.28676792  0.41369745  0.28261669    -0.06500
C147        C  0.38336474  0.39882136  0.32316872     0.87100
C148        C  0.27774820  0.35273653  0.34399559     0.87600
C149        C  0.30294250  0.40825493  0.29030838     0.87700
H150        H  0.41156482  0.50409191  0.33453841    -0.06500
O151        O  0.37626708  0.45766889  0.37569385    -0.75500
Mg152      Mg  0.37182550  0.43103499  0.28801565     1.58000
H153        H  0.38401238  0.42420814  0.38745712    -0.06500
C154        C  0.33496405  0.30860993  0.33601464     0.92700
O155        O  0.33447295  0.34902726  0.27615204    -0.82700
C156        C  0.34579033  0.36753655  0.26062072     0.92700
O157        O  0.28830425  0.37118664  0.40771434    -0.82700
Mg158      Mg  0.35281041  0.48341607  0.36126096     1.58200
O159        O  0.33792358  0.32405422  0.31922447    -0.81000
O160        O  0.33656153  0.01911623  0.31612300    -0.82700
C161        C  0.40024901  0.34381498  0.18616156     0.02300
C162        C  0.42820109  0.34277135  0.18591295     0.02300
C163        C  0.43652789  0.33330355  0.16671202    -0.18300
C164        C  0.41717403  0.32467615  0.14827805     0.02300
C165        C  0.38891522  0.32531445  0.14951047     0.02300
C166        C  0.38155770  0.33576945  0.16806659    -0.18300
H167        H  0.36089241  0.33802138  0.16843851     0.04300
H168        H  0.45801751  0.33274605  0.16607257     0.04300
O169        O  0.21298169  0.02633725  0.00670894    -0.88300
C170        C  0.24155445  0.47699538  0.04594150     0.87700
Mg171      Mg  0.18647425  0.00711143  0.97811766     1.58100
O172        O  0.30132102  0.03182598  0.01456086    -0.88100
O173        O  0.25942233  0.06403532  0.01551693    -0.75400
C174        C  0.26030357  0.44863998  0.92525503     0.92800
O175        O  0.17582422  0.45276868  0.01580343    -0.75200
O176        O  0.23409020  0.44644969  0.92856717    -0.82700
Mg177      Mg  0.19666340  0.49763184  0.03548850     1.58000
C178        C  0.35942883  0.00429263  0.98310819     0.92700
O179        O  0.20972268  0.03750088  0.05775480    -0.81000
H180        H  0.33196676  0.07595099  0.00770305    -0.06300
C181        C  0.25923172  0.44551095  0.99076000     0.87600
O182        O  0.23164007  0.02999559  0.95759772    -0.75500
O183        O  0.24148978  0.49976052  0.03833856    -0.88200
O184        O  0.34994466  0.00571319  0.00194400    -0.81100
C185        C  0.32791340  0.02740938  0.06670944     0.92800
C186        C  0.23256616  0.05435807  0.06983281     0.92600
Mg187      Mg  0.29723848  0.00131327  0.96288121     1.58000
O188        O  0.28228051  0.46086496  0.93891405    -0.81000
O189        O  0.31915452  0.04648805  0.98227221    -0.75200
O190        O  0.30616574  0.03388328  0.06555144    -0.81100
O191        O  0.14964652  0.49665824  0.03295469    -0.82800
O192        O  0.18994793  0.47229349  0.93237535    -0.81100
C193        C  0.31830541  0.05237344  0.00196611     0.87100
O194        O  0.25305850  0.00099777  0.95981911    -0.88200
O195        O  0.27967653  0.47315486  0.99102988    -0.88300
O196        O  0.23411658  0.43592085  0.98018724    -0.75400
Mg197      Mg  0.28051079  0.04494291  0.03949643     1.58000
O198        O  0.33273877  0.01291172  0.05154263    -0.82800
H199        H  0.22980929  0.06957607  0.99616385    -0.06500
O200        O  0.19279595  0.46856287  0.98350696    -0.88000
H201        H  0.16369017  0.42392816  0.99004968    -0.06300
H202        H  0.27188994  0.03975170  0.94239337    -0.06500
C203        C  0.17663570  0.44745665  0.99599735     0.87100
C204        C  0.23352621  0.05389165  0.00595211     0.87600
C205        C  0.25314066  0.02413519  0.95279812     0.87700
H206        H  0.26254100  0.42915040  0.00005909    -0.06500
O207        O  0.26253826  0.47051704  0.04100706    -0.75500
Mg208      Mg  0.21358718  0.45739458  0.95720443     1.58000
H209        H  0.22316111  0.46206028  0.05682598    -0.06500
C210        C  0.13335106  0.49426597  0.01655014     0.92700
O211        O  0.16038692  0.48809139  0.94869146    -0.82700
C212        C  0.16638183  0.47599275  0.93266364     0.92700
O213        O  0.25967366  0.05874972  0.06620655    -0.82700
Mg214      Mg  0.30681729  0.49288304  0.01999825     1.58200
O215        O  0.14284349  0.49389380  0.99751266    -0.85800
O216        O  0.34330908  0.00091077  0.96638481    -0.82700
O217        O  0.27404674  0.30890486  0.99788097    -0.88300
C218        C  0.26746102  0.23932331  0.95854288     0.87700
Mg219      Mg  0.29290461  0.31461184  0.02918769     1.58100
O220        O  0.19624533  0.22279195  0.98222848    -0.88100
O221        O  0.22835422  0.29602121  0.98465808    -0.75400
C222        C  0.22483555  0.17761558  0.07431444     0.92800
O223        O  0.32201895  0.28159677  0.99438501    -0.75200
O224        O  0.25040971  0.20282040  0.07272816    -0.82700
Mg225      Mg  0.30150396  0.30355191  0.97256370     1.58000
C226        C  0.13721644  0.13535982  0.00518975     0.92700
O227        O  0.28886092  0.32699005  0.94639111    -0.81000
H228        H  0.16110659  0.23140377  0.98515823    -0.06300
C229        C  0.24064733  0.18330507  0.01036373     0.87600
O230        O  0.24382996  0.28598029  0.04409983    -0.75500
O231        O  0.26174741  0.25937403  0.96515088    -0.88200
O232        O  0.15084450  0.14858419  0.98788820    -0.81100
C233        C  0.18515576  0.19662287  0.92828822     0.92800
C234        C  0.26672094  0.31911682  0.93315897     0.92600
Mg235      Mg  0.19072086  0.19206370  0.03340781     1.58000
O236        O  0.20434805  0.16800888  0.05950678    -0.81000
O237        O  0.16994978  0.21399796  0.01183332    -0.75200
O238        O  0.20449799  0.22511603  0.93152046    -0.81100
O239        O  0.34322110  0.35000146  0.98112896    -0.82800
O240        O  0.28655216  0.27364959  0.07470620    -0.81100
C241        C  0.17499901  0.22280902  0.99252430     0.87100
O242        O  0.23002401  0.23698116  0.04114927    -0.88200
O243        O  0.21851317  0.18784223  0.00796431    -0.88300
O244        O  0.26307920  0.19993030  0.02291620    -0.75400
Mg245      Mg  0.21827846  0.25869521  0.95955657     1.58000
O246        O  0.17891718  0.17678904  0.94294250    -0.82800
H247        H  0.25124561  0.33106826  0.00596940    -0.06500
O248        O  0.29578018  0.27350209  0.02389260    -0.88000
H249        H  0.33049365  0.26421560  0.02123262    -0.06300
H250        H  0.20286380  0.25092143  0.05536284    -0.06500
C251        C  0.31684537  0.27298375  0.01372239     0.87100
C252        C  0.25166695  0.31319547  0.99630395     0.87600
C253        C  0.22463235  0.25745293  0.04731075     0.87700
H254        H  0.24144105  0.16538521  0.00099498    -0.06500
O255        O  0.24877319  0.21071077  0.96162831    -0.75500
Mg256      Mg  0.27329431  0.23839406  0.04751435     1.58000
H257        H  0.28927610  0.24636560  0.95039494    -0.06500
C258        C  0.35508960  0.36157931  0.99930481     0.92700
O259        O  0.31496395  0.32044959  0.06131781    -0.82700
C260        C  0.30859531  0.30150902  0.07649395     0.92700
O261        O  0.24020140  0.29542801  0.93544279    -0.82700
Mg262      Mg  0.19984972  0.18230480  0.97616608     1.58200
O263        O  0.34182805  0.34924011  0.01693384    -0.81000
O264        O  0.14907127  0.14542189  0.02369723    -0.82700
O265        O  0.02776712  0.22199519  0.99582235    -0.88300
C266        C  0.46509552  0.22646521  0.95238485     0.87700
Mg267      Mg  0.01344327  0.20397181  0.02814991     1.58100
O268        O  0.02541875  0.29963462  0.97607646    -0.88100
O269        O  0.06303727  0.26282622  0.97882694    -0.75400
C270        C  0.44620614  0.28073204  0.06928011     0.92800
O271        O  0.45108797  0.17717890  0.99204205    -0.75200
O272        O  0.44379682  0.25406420  0.06992979    -0.82700
Mg273      Mg  0.49391005  0.19278171  0.97030170     1.58000
C274        C  0.99589446  0.36027865  0.99886356     0.92700
O275        O  0.03483597  0.20302512  0.94450327    -0.81000
H276        H  0.07007001  0.33105505  0.98129393    -0.06300
C277        C  0.43675130  0.25811278  0.00563081     0.87600
O278        O  0.03568867  0.25290583  0.04276197    -0.75500
O279        O  0.49086048  0.23196673  0.95882988    -0.88200
O280        O  0.99439712  0.34577495  0.98172485    -0.81100
C281        C  0.01198990  0.31388261  0.92295984     0.92800
C282        C  0.04892404  0.22184512  0.92908379     0.92600
Mg283      Mg  0.99920375  0.30805183  0.02884774     1.58000
O284        O  0.45932359  0.29906456  0.05350101    -0.81000
O285        O  0.04175968  0.32365556  0.00685595    -0.75200
O286        O  0.02125216  0.29424052  0.92483223    -0.81100
O287        O  0.49678886  0.15090623  0.98228680    -0.82800
O288        O  0.47208787  0.20835599  0.07427165    -0.81100
C289        C  0.04660545  0.31879881  0.98758570     0.87100
O290        O  0.00164157  0.26820156  0.03948738    -0.88200
O291        O  0.46423516  0.27763920  0.00225213    -0.88300
O292        O  0.42920039  0.23758399  0.01995280    -0.75400
Mg293      Mg  0.03806854  0.27522912  0.95288476     1.58000
O294        O  0.99697312  0.31782910  0.93806965    -0.82800
H295        H  0.07310953  0.24170977  0.00270283    -0.06500
O296        O  0.46715956  0.20126592  0.02284654    -0.88000
H297        H  0.42253515  0.16990497  0.01744155    -0.06300
H298        H  0.04258074  0.29413356  0.05408909    -0.06500
C299        C  0.44606437  0.18211050  0.01126080     0.87100
C300        C  0.05527488  0.24184399  0.99285703     0.87600
C301        C  0.02704592  0.27264051  0.04596551     0.87700
H302        H  0.41876145  0.25809895  0.99587580    -0.06500
O303        O  0.45535902  0.24529666  0.95565491    -0.75500
Mg304      Mg  0.45498970  0.22622107  0.04580419     1.58000
H305        H  0.45009822  0.20467444  0.94440661    -0.06500
C306        C  0.49688058  0.14057831  0.00093320     0.92700
O307        O  0.49577316  0.18430650  0.06090994    -0.82700
C308        C  0.48107297  0.18853480  0.07609518     0.92700
O309        O  0.05080817  0.24833546  0.92838258    -0.82700
Mg310      Mg  0.47693490  0.29438855  0.96960953     1.58200
O311        O  0.49816412  0.15534031  0.01788430    -0.81000
O312        O  0.99649103  0.34992908  0.01738251    -0.82700
O313        O  0.14347910  0.02323261  0.67237534    -0.88300
C314        C  0.19618115  0.09917989  0.71079084     0.87700
Mg315      Mg  0.15992914  0.01723866  0.64175019     1.58100
O316        O  0.13651047  0.10230218  0.68229778    -0.88100
O317        O  0.10482972  0.02815879  0.68479104    -0.75400
C318        C  0.22097526  0.15322488  0.59385933     0.92800
O319        O  0.21864567  0.05916286  0.67830726    -0.75200
O320        O  0.22435252  0.12973499  0.59537118    -0.82700
Mg321      Mg  0.17509074  0.03399467  0.69929798     1.58000
C322        C  0.15936468  0.18873437  0.65238332     0.92700
O323        O  0.13743043  0.00747023  0.72470980    -0.81000
H324        H  0.09151557  0.08593782  0.67553462    -0.06300
C325        C  0.22361599  0.15014540  0.65775223     0.87600
O326        O  0.13603251  0.04019423  0.62409921    -0.75500
O327        O  0.17285688  0.07583544  0.70393182    -0.88200
O328        O  0.15733519  0.17668427  0.67080534    -0.81100
C329        C  0.14441875  0.13344983  0.73427828     0.92800
C330        C  0.12209918  0.01335599  0.73846581     0.92600
Mg331      Mg  0.16611390  0.13275343  0.63060303     1.58000
O332        O  0.20721487  0.16018126  0.60824846    -0.81000
O333        O  0.12093981  0.10639738  0.65042625    -0.75200
O334        O  0.14313152  0.10736312  0.73358807    -0.81100
O335        O  0.17659121  0.49011321  0.69485908    -0.82800
O336        O  0.19892824  0.05846108  0.59586133    -0.81100
C337        C  0.11531811  0.09778985  0.66985689     0.87100
O338        O  0.16732404  0.09038560  0.62554084    -0.88200
O339        O  0.19567783  0.14229864  0.65818303    -0.88300
O340        O  0.23370893  0.13555908  0.64658875    -0.75400
Mg341      Mg  0.12688702  0.06947995  0.70805443     1.58000
O342        O  0.15450672  0.15206490  0.71853949    -0.82800
H343        H  0.09915722  0.99356330  0.66466403    -0.06500
O344        O  0.20169890  0.06161942  0.64662284    -0.88000
H345        H  0.24676786  0.07712736  0.65235425    -0.06300
H346        H  0.12677211  0.07119659  0.60984388    -0.06500
C347        C  0.22328611  0.06611449  0.65861538     0.87100
C348        C  0.11526868  0.01385474  0.67372638     0.87600
C349        C  0.14296820  0.06762799  0.61925990     0.87700
H350        H  0.23978485  0.16943774  0.66758447    -0.06500
O351        O  0.20136624  0.12626871  0.70648685    -0.75500
Mg352      Mg  0.21295049  0.09541487  0.62205059     1.58000
H353        H  0.21267026  0.09652824  0.72054815    -0.06500
C354        C  0.17639750  0.47612216  0.67773239     0.92700
O355        O  0.17707689  0.01064195  0.60861855    -0.82700
C356        C  0.18932126  0.02977868  0.59317142     0.92700
O357        O  0.11707064  0.03574184  0.73565054    -0.82700
Mg358      Mg  0.17647264  0.14762350  0.68764244     1.58200
O359        O  0.17795843  0.98737779  0.65802631    -0.81000
O360        O  0.16489344  0.17785109  0.63548961    -0.82700
C361        C  0.11345889  0.17825672  0.85105073     0.02300
C362        C  0.08479651  0.17791530  0.85269264     0.02300
C363        C  0.06514268  0.16917635  0.83449011    -0.18300
C364        C  0.07385534  0.16122464  0.81485320     0.02300
C365        C  0.10406990  0.16484473  0.81300964     0.02300
C366        C  0.12280055  0.17201797  0.83128647    -0.18300
H367        H  0.14466791  0.17207679  0.83026395     0.04300
H368        H  0.04294542  0.16836226  0.83568649     0.04300
C369        C  0.08630289  0.43549622  0.85777291     0.02300
C370        C  0.05734792  0.40742835  0.85545924     0.02300
C371        C  0.04213808  0.40034338  0.83553188    -0.18300
C372        C  0.05558525  0.41950917  0.81766430     0.02300
C373        C  0.08469755  0.44709991  0.81976896     0.02300
C374        C  0.09991256  0.45439125  0.83967446    -0.18300
H375        H  0.12279947  0.47472326  0.84110626     0.04300
H376        H  0.01975276  0.37941027  0.83388262     0.04300
O377        O  0.47907945  0.11692917  0.67193145    -0.88300
C378        C  0.40587938  0.09614139  0.71330804     0.87700
Mg379      Mg  0.48397626  0.13801178  0.64058478     1.58100
O380        O  0.40216694  0.03161095  0.68651361    -0.88100
O381        O  0.47662468  0.07609527  0.68676362    -0.75400
C382        C  0.34475478  0.05553119  0.59583932     0.92800
O383        O  0.44118557  0.15374407  0.67740137    -0.75200
O384        O  0.36855754  0.08252417  0.59518734    -0.82700
Mg385      Mg  0.46917096  0.13914774  0.69881535     1.58000
C386        C  0.31158417  0.46968460  0.66063529     0.92700
O387        O  0.49833666  0.13169527  0.72412085    -0.81000
H388        H  0.41991067  0.00438696  0.67931125    -0.06300
C389        C  0.35286824  0.06891728  0.65917497     0.87600
O390        O  0.46184815  0.09076413  0.62333114    -0.75500
O391        O  0.42872247  0.09533476  0.70624338    -0.88200
O392        O  0.32196935  0.48243218  0.67887996    -0.81100
C393        C  0.37024519  0.01150376  0.73908721     0.92800
C394        C  0.49545457  0.11269970  0.73869347     0.92600
Mg395      Mg  0.37046936  0.02794463  0.63378215     1.58000
O396        O  0.33984815  0.03790856  0.61173366    -0.81000
O397        O  0.39874225  0.01230715  0.65428683    -0.75200
O398        O  0.39897586  0.03258802  0.73822593    -0.81100
O399        O  0.01004791  0.18416470  0.69261971    -0.82800
O400        O  0.44086894  0.12991023  0.59402436    -0.81100
C401        C  0.40725475  0.01548628  0.67380583     0.87100
O402        O  0.41160998  0.07083872  0.62661323    -0.88200
O403        O  0.36245539  0.05039635  0.66075813    -0.88300
O404        O  0.36545539  0.09180860  0.64645196    -0.75400
Mg405      Mg  0.43660494  0.05694151  0.71148836     1.58000
O406        O  0.35236209  0.00515173  0.72299030    -0.82800
H407        H  0.50903074  0.10247256  0.66453159    -0.06500
O408        O  0.43919025  0.13464826  0.64541731    -0.88000
H409        H  0.42126682  0.16190870  0.65177490    -0.06300
H410        H  0.43026994  0.04941286  0.61029166    -0.06500
C411        C  0.43371760  0.15083345  0.65773050     0.87100
C412        C  0.48926583  0.09898637  0.67405552     0.87600
C413        C  0.43416688  0.06945783  0.61954304     0.87700
H414        H  0.33368877  0.06591847  0.66917219    -0.06500
O415        O  0.37842278  0.07483848  0.70903354    -0.75500
Mg416      Mg  0.40467124  0.10935351  0.62117211     1.58000
H417        H  0.40933335  0.11573579  0.72292188    -0.06500
C418        C  0.02251983  0.19719290  0.67503618     0.92700
O419        O  0.48779593  0.16144182  0.60772353    -0.82700
C420        C  0.46809919  0.15334689  0.59240968     0.92700
O421        O  0.47315657  0.08460044  0.73800083    -0.82700
Mg422      Mg  0.35706097  0.02831298  0.69111046     1.58200
O423        O  0.51431428  0.18608346  0.65594947    -0.81000
O424        O  0.32433508  0.48295669  0.64320094    -0.82700
O425        O  0.35892227  0.30340610  0.66218913    -0.88300
C426        C  0.42357102  0.36006935  0.61811016     0.87700
Mg427      Mg  0.35387198  0.31996317  0.69298598     1.58100
O428        O  0.43988698  0.30740229  0.64445037    -0.88100
O429        O  0.36559678  0.26756487  0.64698565    -0.75400
C430        C  0.49386008  0.39543741  0.73367967     0.92800
O431        O  0.38313447  0.37624865  0.65402970    -0.75200
O432        O  0.46879097  0.39634250  0.73249087    -0.82700
Mg433      Mg  0.35913782  0.33041202  0.63525875     1.58000
C434        C  0.03042150  0.33834976  0.66640493     0.92700
O435        O  0.33185052  0.28821846  0.61336244    -0.81000
H436        H  0.42885524  0.26429927  0.65237429    -0.06300
C437        C  0.48281957  0.39593041  0.66857914     0.87600
O438        O  0.38316553  0.30223187  0.70941723    -0.75500
O439        O  0.40350716  0.33543412  0.62602933    -0.88200
O440        O  0.51655421  0.33769751  0.64969918    -0.81100
C441        C  0.46502448  0.31459317  0.59091770     0.92800
C442        C  0.33984539  0.27943876  0.59652232     0.92600
Mg443      Mg  0.47554886  0.34192835  0.69522864     1.58000
O444        O  0.50226307  0.38315885  0.71892759    -0.81000
O445        O  0.45014016  0.29615357  0.67608250    -0.75200
O446        O  0.43765561  0.31045383  0.59267784    -0.81100
O447        O  0.31242122  0.32440413  0.64554475    -0.82800
O448        O  0.39628548  0.36782688  0.73640036    -0.81100
C449        C  0.43930300  0.28830508  0.65722241     0.87100
O450        O  0.43154138  0.33808996  0.70452603    -0.88200
O451        O  0.47727577  0.36889691  0.66763186    -0.88300
O452        O  0.46815065  0.40404976  0.68137102    -0.75400
Mg453      Mg  0.40305407  0.29255487  0.62092103     1.58000
O454        O  0.48494001  0.32881026  0.60561385    -0.82800
H455        H  0.33428439  0.25893951  0.67085179    -0.06500
O456        O  0.39394349  0.36438767  0.68520349    -0.88000
H457        H  0.40284324  0.40719702  0.67841419    -0.06300
H458        H  0.41987359  0.30020196  0.72182254    -0.06500
C459        C  0.39346371  0.38353709  0.67300828     0.87100
C460        C  0.35198093  0.27600745  0.66046706     0.87600
C461        C  0.41207126  0.31326175  0.71251404     0.87700
H462        H  0.50011707  0.41295666  0.65796043    -0.06500
O463        O  0.45241285  0.36953550  0.62047250    -0.75500
Mg464      Mg  0.43109146  0.38116548  0.70793131     1.58000
H465        H  0.41646248  0.37400523  0.60917107    -0.06500
C466        C  0.30309109  0.32805630  0.66377991     0.92700
O467        O  0.34805746  0.33855255  0.72441535    -0.82700
C468        C  0.36694452  0.35614492  0.73864113     0.92700
O469        O  0.36559448  0.27967202  0.59569608    -0.82700
Mg470      Mg  0.48123192  0.35059334  0.63683078     1.58200
O471        O  0.31847853  0.33215038  0.68082373    -0.81000
O472        O  0.02189306  0.34327812  0.68460602    -0.82700
C473        C  0.28720701  0.38003824  0.84026667     0.02300
C474        C  0.29402405  0.41042112  0.84565597     0.02300
C475        C  0.31104504  0.43390605  0.83053651    -0.18300
C476        C  0.32198064  0.42780646  0.81127187     0.02300
C477        C  0.31658187  0.39752915  0.80715724     0.02300
C478        C  0.29887088  0.37403754  0.82163500    -0.18300
H479        H  0.29508151  0.35090540  0.81873540     0.04300
H480        H  0.31660092  0.45748528  0.83380660     0.04300
C481        C  0.01386364  0.24461066  0.48108896     0.02300
C482        C  0.01466209  0.27349301  0.48301337     0.02300
C483        C  0.00760850  0.28175341  0.50283052    -0.18300
C484        C  0.50243165  0.26373580  0.51987371     0.02300
C485        C  0.50150014  0.23484259  0.51828021     0.02300
C486        C  0.01025479  0.22738646  0.49985679    -0.18300
H487        H  0.01215801  0.20673011  0.49891076     0.04300
H488        H  0.00558126  0.30239813  0.50396775     0.04300
C489        C  0.23583377  0.23142300  0.47969355     0.02300
C490        C  0.25610205  0.26387174  0.48153708     0.02300
C491        C  0.27227427  0.27494113  0.50127814    -0.18300
C492        C  0.26864082  0.25456737  0.51805589     0.02300
C493        C  0.24658046  0.22278525  0.51591678     0.02300
C494        C  0.23089061  0.21148139  0.49664937    -0.18300
H495        H  0.21419566  0.18697852  0.49496764     0.04300
H496        H  0.28764474  0.29947057  0.50389973     0.04300
C497        C  0.23577767  0.48243850  0.48209077     0.02300
C498        C  0.26818460  0.49351655  0.48396431     0.02300
C499        C  0.28340270  0.50727778  0.50324086    -0.18300
C500        C  0.26985058  0.01174079  0.51884619     0.02300
C501        C  0.23786705  0.00206408  0.51689554     0.02300
C502        C  0.21938062  0.48450030  0.49993139    -0.18300
H503        H  0.19475414  0.47665733  0.49843067     0.04300
H504        H  0.30822781  0.51598335  0.50459030     0.04300
O505        O  0.03816319  0.48547001  0.99100376    -0.88300
C506        C  0.46399789  0.44378033  0.03205958     0.87700
Mg507      Mg  0.07206473  0.03173484  0.99510805     1.58100
O508        O  0.44666626  0.46204379  0.98107643    -0.88100
O509        O  0.50499374  0.45510339  0.96673477    -0.75400
C510        C  0.99730862  0.11101604  0.00198039     0.92800
O511        O  0.03921644  0.50067611  0.04183349    -0.75200
O512        O  0.02033057  0.11076066  0.01082991    -0.82700
Mg513      Mg  0.02780131  0.45863812  0.02022694     1.58000
C514        C  0.39017875  0.50489564  0.98094366     0.92700
O515        O  0.01800397  0.41342582  0.00505484    -0.81000
H516        H  0.44249781  0.45613470  0.94927205    -0.06300
C517        C  0.45977327  0.02607198  0.02848705     0.87600
O518        O  0.05023213  0.04770513  0.96921209    -0.75500
O519        O  0.47894815  0.44521637  0.01577114    -0.88200
O520        O  0.38938629  0.47945542  0.98518848    -0.81100
C521        C  0.38409961  0.39122872  0.99989428     0.92800
C522        C  0.99513414  0.38913014  0.99743505     0.92600
Mg523      Mg  0.46479097  0.04106003  0.98053734     1.58000
O524        O  0.47495430  0.08738173  0.99429648    -0.81000
O525        O  0.45352410  0.99821887  0.96007855    -0.75200
O526        O  0.40965036  0.39166724  0.99660383    -0.81100
O527        O  0.07831879  0.46910974  0.02131793    -0.82800
O528        O  0.08233182  0.10658062  0.00532630    -0.81100
C529        C  0.44748328  0.47162606  0.96277924     0.87100
O530        O  0.01320208  0.05263708  0.98448771    -0.88200
O531        O  0.45424557  0.01519790  0.01018147    -0.88300
O532        O  0.98536456  0.04479648  0.03302950    -0.75400
Mg533      Mg  0.45856221  0.42616923  0.98432091     1.58000
O534        O  0.38255127  0.41573555  0.00257436    -0.82800
H535        H  0.04976712  0.48373646  0.96048556    -0.06500
O536        O  0.04384725  0.03588915  0.02020880    -0.88000
H537        H  0.04798613  0.04147733  0.05205783    -0.06300
H538        H  0.02464789  0.06302368  0.95364858    -0.06500
C539        C  0.04328996  0.02620984  0.03845173     0.87100
C540        C  0.03173499  0.47488712  0.97260692     0.87600
C541        C  0.02918624  0.05510132  0.96858705     0.87700
H542        H  0.44113238  0.01760314  0.04015006    -0.06500
O543        O  0.44305714  0.45138494  0.03186072    -0.75500
Mg544      Mg  0.03231375  0.07240353  0.01609001     1.58000
H545        H  0.46941211  0.43660531  0.04699413    -0.06500
C546        C  0.10365312  0.49444043  0.01875195     0.92700
O547        O  0.10881058  0.08157559  0.00064476    -0.82700
C548        C  0.10777808  0.10630298  0.00349078     0.92700
O549        O  0.47037930  0.38800329  0.98790021    -0.82700
Mg550      Mg  0.41931950  0.46623141  0.00656750     1.58200
O551        O  0.10162884  0.01823737  0.01673336    -0.81000
O552        O  0.41423849  0.02958475  0.97863965    -0.82700
O553        O  0.29128629  0.18176711  0.32266772    -0.88300
C554        C  0.36223288  0.22069334  0.36700944     0.87700
Mg555      Mg  0.25667037  0.13307309  0.32354305     1.58100
O556        O  0.38358460  0.20649012  0.31554338    -0.88100
O557        O  0.32607989  0.21525308  0.30085763    -0.75400
C558        C  0.33248618  0.05708922  0.33578736     0.92800
O559        O  0.28636686  0.16383199  0.37314647    -0.75200
O560        O  0.30853516  0.05662476  0.34359569    -0.82700
Mg561      Mg  0.29908942  0.20673134  0.35293713     1.58000
C562        C  0.44281249  0.16728349  0.31470147     0.92700
O563        O  0.31138155  0.25464295  0.34018960    -0.81000
H564        H  0.38928573  0.21413516  0.28396518    -0.06300
C565        C  0.36849622  0.14252742  0.36123316     0.87600
O566        O  0.28293706  0.12027523  0.29901024    -0.75500
O567        O  0.34813250  0.21957712  0.35044603    -0.88200
O568        O  0.44193629  0.19116891  0.32094712    -0.81100
C569        C  0.44572671  0.27581388  0.33583133     0.92800
C570        C  0.33526097  0.27945985  0.33387966     0.92600
Mg571      Mg  0.36631385  0.12781721  0.31315934     1.58000
O572        O  0.35497022  0.08119601  0.32742009    -0.81000
O573        O  0.37753245  0.17050078  0.29283015    -0.75200
O574        O  0.42010863  0.27550720  0.33326351    -0.81100
O575        O  0.24692999  0.19286845  0.35292734    -0.82800
O576        O  0.24759739  0.05982912  0.33502122    -0.81100
C577        C  0.38396980  0.19800404  0.29697790     0.87100
O578        O  0.31788904  0.11477021  0.31653730    -0.88200
O579        O  0.37523131  0.15348364  0.34303833    -0.88300
O580        O  0.34085597  0.12250800  0.36616051    -0.75400
Mg581      Mg  0.37123568  0.24197856  0.32030157     1.58000
O582        O  0.44704851  0.25138986  0.33877928    -0.82800
H583        H  0.28101455  0.18646745  0.29245130    -0.06500
O584        O  0.28228044  0.12885020  0.35035511    -0.88000
H585        H  0.27366207  0.11984381  0.38161440    -0.06300
H586        H  0.31110802  0.10657004  0.28504598    -0.06500
C587        C  0.28016911  0.13651125  0.36882201     0.87100
C588        C  0.29844512  0.19421536  0.30493266     0.87600
C589        C  0.30414624  0.11316805  0.29970347     0.87700
H590        H  0.38631322  0.15116671  0.37347550    -0.06500
O591        O  0.38399437  0.21424558  0.36692005    -0.75500
Mg592      Mg  0.29574666  0.09419091  0.34734765     1.58000
H593        H  0.35551868  0.22674125  0.38199998    -0.06500
C594        C  0.22230805  0.16731952  0.34837363     0.92700
O595        O  0.21975613  0.08194906  0.32597668    -0.82700
C596        C  0.22188286  0.05823009  0.33048610     0.92700
O597        O  0.35942480  0.27993270  0.32644973    -0.82700
Mg598      Mg  0.40973441  0.20142265  0.34153136     1.58200
O599        O  0.22322688  0.14328888  0.34254748    -0.81000
O600        O  0.41810374  0.14142595  0.31120472    -0.82700
O601        O  0.20210203  0.31811435  0.64744866    -0.88300
C602        C  0.14152481  0.27480883  0.69685020     0.87700
Mg603      Mg  0.24044566  0.36594673  0.64989856     1.58100
O604        O  0.11194445  0.29467818  0.65188364    -0.88100
O605        O  0.16374521  0.28516126  0.62736918    -0.75400
C606        C  0.17622780  0.44671865  0.67893763     0.92800
O607        O  0.21541768  0.32868373  0.69778047    -0.75200
O608        O  0.20137641  0.44665076  0.68271989    -0.82700
Mg609      Mg  0.19859961  0.28824178  0.67343356     1.58000
C610        C  0.05997965  0.33857853  0.66489121     0.92700
O611        O  0.18378003  0.24346176  0.65315341    -0.81000
H612        H  0.10274934  0.29188933  0.62050194    -0.06300
C613        C  0.14064226  0.35883118  0.70169741     0.87600
O614        O  0.21401453  0.38406094  0.63025859    -0.75500
O615        O  0.15081019  0.27632663  0.67825814    -0.88200
O616        O  0.05995645  0.31362862  0.66878471    -0.81100
C617        C  0.05231434  0.22613210  0.67510602     0.92800
C618        C  0.15817084  0.21782931  0.65142111     0.92600
Mg619      Mg  0.13553809  0.37618410  0.65640736     1.58000
O620        O  0.15083880  0.42222563  0.67406765    -0.81000
O621        O  0.11909454  0.33477757  0.63331119    -0.75200
O622        O  0.07558711  0.22547737  0.66694251    -0.81100
O623        O  0.24857091  0.30072502  0.66693776    -0.82800
O624        O  0.25834375  0.43959894  0.66805606    -0.81100
C625        C  0.11058335  0.30624511  0.63475558     0.87100
O626        O  0.18361864  0.38838233  0.65359135    -0.88200
O627        O  0.13128453  0.34780379  0.68371049    -0.88300
O628        O  0.16874076  0.37946343  0.70475412    -0.75400
Mg629      Mg  0.12189089  0.25724385  0.65014736     1.58000
O630        O  0.05369803  0.25096829  0.68152593    -0.82800
H631        H  0.20657750  0.31588516  0.61567740    -0.06500
O632        O  0.22072442  0.36915003  0.68054705    -0.88000
H633        H  0.23069195  0.37077540  0.71175536    -0.06300
H634        H  0.18610439  0.40173899  0.62312465    -0.06500
C635        C  0.22281319  0.35704544  0.69722307     0.87100
C636        C  0.19168644  0.30696888  0.62961454     0.87600
C637        C  0.19437843  0.39222496  0.63528144     0.87700
H638        H  0.12476911  0.35029542  0.71516060    -0.06500
O639        O  0.12235526  0.28368664  0.70174740    -0.75500
Mg640      Mg  0.21109153  0.40665500  0.68285485     1.58000
H641        H  0.15068060  0.26665890  0.70934373    -0.06500
C642        C  0.27328103  0.32688669  0.66541221     0.92700
O643        O  0.28127735  0.41572930  0.65275573    -0.82700
C644        C  0.28216999  0.44002653  0.66004399     0.92700
O645        O  0.13203545  0.21688666  0.65073669    -0.82700
Mg646      Mg  0.09394144  0.30026555  0.68267615     1.58200
O647        O  0.27304384  0.35216513  0.66517445    -0.81000
O648        O  0.08485063  0.36396161  0.66097400    -0.82700
C649        C  0.32761886  0.36837388  0.75309519    -0.05800
C650        C  0.35421874  0.36575510  0.75701318     0.00200
C651        C  0.36808232  0.37362643  0.77763253    -0.08400
C652        C  0.35575708  0.38534918  0.79308345    -0.05800
C653        C  0.32997362  0.38906477  0.78878405     0.00100
C654        C  0.31473027  0.37909835  0.76875417    -0.08300
C655        C  0.28434413  0.37795985  0.76315160     0.62100
H656        H  0.31652233  0.36187986  0.73748899     0.12800
H657        H  0.36586316  0.39118255  0.80898334     0.12800
C658        C  0.39486768  0.36861654  0.78370675     0.62300
F659        F  0.28901504  0.39656969  0.74557326    -0.22900
F660        F  0.27240357  0.38761887  0.77960089    -0.20200
F661        F  0.26224689  0.34780748  0.75795524    -0.19900
F662        F  0.39992785  0.37108581  0.80564118    -0.19900
F663        F  0.42192094  0.39055045  0.77384054    -0.20300
F664        F  0.38836171  0.33930460  0.77742261    -0.22900
C665        C  0.33506100  0.27512393  0.55682218    -0.05800
C666        C  0.32026736  0.27170685  0.57678098     0.00200
C667        C  0.28858661  0.26427855  0.57704448    -0.08400
C668        C  0.27394230  0.26304500  0.55746368    -0.05800
C669        C  0.28855154  0.26565972  0.53762093     0.00100
C670        C  0.31960110  0.27158385  0.53722982    -0.08300
C671        C  0.33608327  0.27336921  0.51620226     0.62100
H672        H  0.35909712  0.28075362  0.55660457     0.12800
H673        H  0.25001132  0.25794244  0.55741968     0.12800
C674        C  0.26943246  0.25575707  0.59755263     0.62300
F675        F  0.36572691  0.27805039  0.51945652    -0.22900
F676        F  0.33881818  0.29773333  0.50411166    -0.20200
F677        F  0.31936361  0.24607955  0.50474139    -0.19900
F678        F  0.27716224  0.28213677  0.60941308    -0.19900
F679        F  0.27480940  0.23563015  0.60955791    -0.20300
F680        F  0.23781412  0.24106819  0.59329926    -0.22900
C681        C  0.50476497  0.30737462  0.57093120    -0.05800
C682        C  0.47382300  0.30156119  0.57201856     0.00200
C683        C  0.45217631  0.28159148  0.55617489    -0.08400
C684        C  0.46256382  0.26888992  0.54011220    -0.05800
C685        C  0.49318515  0.27458732  0.53935745     0.00100
C686        C  0.01438262  0.29633466  0.55487771    -0.08300
C687        C  0.04929257  0.30903864  0.55396185     0.62100
H688        H  0.02040109  0.32558563  0.58179059     0.12800
H689        H  0.44683203  0.25450286  0.52756143     0.12800
C690        C  0.41823887  0.27334726  0.55576917     0.62300
F691        F  0.06411134  0.34056871  0.55027114    -0.22900
F692        F  0.05826763  0.29573642  0.53807869    -0.20200
F693        F  0.05924604  0.30405560  0.57346173    -0.19900
F694        F  0.41652918  0.30009064  0.55400757    -0.19900
F695        F  0.40342988  0.25762124  0.57426901    -0.20300
F696        F  0.40220920  0.25438205  0.53856635    -0.22900
C697        C  0.37732121  0.49011194  0.77245416    -0.05800
C698        C  0.35645802  0.49678806  0.76168527     0.00200
C699        C  0.32546008  0.48358360  0.76927982    -0.08400
C700        C  0.31540426  0.46100654  0.78537928    -0.05800
C701        C  0.33571503  0.45271777  0.79503782     0.00100
C702        C  0.36774399  0.46912603  0.78960746    -0.08300
C703        C  0.39289701  0.46648809  0.80159837     0.62100
H704        H  0.40143538  0.50117543  0.76731306     0.12800
H705        H  0.29126195  0.44938591  0.79047538     0.12800
C706        C  0.30228208  0.98335113  0.75356244     0.62300
F707        F  0.41521061  0.49561224  0.80865254    -0.22900
F708        F  0.40690931  0.45515100  0.78789899    -0.20200
F709        F  0.38181508  0.44753729  0.81934296    -0.19900
F710        F  0.29032885  0.47871703  0.74174464    -0.19900
F711        F  0.31380954  0.01488893  0.75183738    -0.20300
F712        F  0.27435232  0.97090011  0.76464453    -0.22900
C713        C  0.29059316  0.00292435  0.55180257    -0.05800
C714        C  0.28713521  0.02400642  0.53915322     0.00200
C715        C  0.30247232  0.05570311  0.54509139    -0.08400
C716        C  0.31985237  0.06483515  0.56424883    -0.05800
C717        C  0.32299759  0.04355546  0.57723460     0.00100
C718        C  0.30792949  0.01179272  0.57083619    -0.08300
C719        C  0.31056378  0.98708495  0.58336880     0.62100
H720        H  0.27987045  0.97917154  0.54627060     0.12800
H721        H  0.33180644  0.08910463  0.56880283     0.12800
C722        C  0.30269188  0.08101699  0.53153916     0.62300
F723        F  0.29667606  0.95878998  0.57280382    -0.22900
F724        F  0.29576395  0.98264290  0.60294503    -0.20200
F725        F  0.34156011  0.99595716  0.58641826    -0.19900
F726        F  0.28129475  0.59001757  0.54813682    -0.19900
F727        F  0.28649672  0.07031210  0.51250293    -0.20300
F728        F  0.33317328  0.10269879  0.52657870    -0.22900
C729        C  0.46444022  0.20149544  0.54614501    -0.05800
C730        C  0.49423531  0.21397178  0.53716042     0.00200
C731        C  0.01753217  0.21168130  0.55130321    -0.08400
C732        C  0.50541065  0.18427842  0.56314697    -0.05800
C733        C  0.47591493  0.17268018  0.57262012     0.00100
C734        C  0.45491033  0.18139984  0.56383757    -0.08300
C735        C  0.42264298  0.17028869  0.57321185     0.62100
H736        H  0.44830416  0.20736828  0.53888254     0.12800
H737        H  0.02389152  0.19017212  0.57920102     0.12800
C738        C  0.05248213  0.22976397  0.54762665     0.62300
F739        F  0.40825810  0.18518617  0.56413168    -0.22900
F740        F  0.42475470  0.17606480  0.59505714    -0.20200
F741        F  0.40390073  0.13890428  0.56942391    -0.19900
F742        F  0.06426424  0.20980774  0.54838203    -0.19900
F743        F  0.06624344  0.25163512  0.56373174    -0.20300
F744        F  0.06080442  0.24457510  0.52807332    -0.22900
C745        C  0.02953216  0.43099015  0.78838119    -0.05800
C746        C  0.03913902  0.41103223  0.79664439     0.00200
C747        C  0.03730432  0.38682987  0.78354402    -0.08400
C748        C  0.02557344  0.38352989  0.76253363    -0.05800
C749        C  0.01583145  0.40354300  0.75424218     0.00100
C750        C  0.01906779  0.42852277  0.76719605    -0.08300
C751        C  0.50805559  0.45428984  0.75821708     0.62100
H752        H  0.03166710  0.44981948  0.79836922     0.12800
H753        H  0.02254627  0.36421857  0.75271639     0.12800
C754        C  0.04721403  0.36430917  0.79167709     0.62300
F755        F  0.51962691  0.47996135  0.77159529    -0.22900
F756        F  0.47640596  0.44267151  0.75601110    -0.20200
F757        F  0.52238199  0.46403558  0.73845264    -0.19900
F758        F  0.02769370  0.34662883  0.80806444    -0.19900
F759        F  0.07743233  0.38015223  0.79926199    -0.20300
F760        F  0.04587767  0.34430126  0.77566870    -0.22900
C761        C  0.06005803  0.16589348  0.77719904    -0.05800
C762        C  0.05158394  0.14881686  0.79626631     0.00200
C763        C  0.02518192  0.11853214  0.79607808    -0.08400
C764        C  0.50791323  0.10639337  0.77658520    -0.05800
C765        C  0.01545791  0.12452698  0.75802477     0.00100
C766        C  0.04334080  0.15406874  0.75791239    -0.08300
C767        C  0.05631330  0.17328875  0.73768061     0.62100
H768        H  0.08065701  0.18861120  0.77744417     0.12800
H769        H  0.48678138  0.08407110  0.77617034     0.12800
C770        C  0.51363824  0.09565223  0.81541073     0.62300
F771        F  0.08683520  0.19680772  0.74035552    -0.22900
F772        F  0.03874885  0.18679035  0.73241368    -0.20200
F773        F  0.05604318  0.15481862  0.72090982    -0.19900
F774        F  0.00449531  0.10979276  0.83126039    -0.19900
F775        F  0.04094949  0.09662143  0.82383295    -0.20300
F776        F  0.49102929  0.06577900  0.80997640    -0.22900
C777        C  0.10717554  0.45458869  0.78324101    -0.05800
C778        C  0.09954691  0.46737824  0.80070488     0.00200
C779        C  0.10159161  0.49656095  0.79832889    -0.08400
C780        C  0.10989202  0.51114126  0.77818654    -0.05800
C781        C  0.11583489  0.49756646  0.76021940     0.00100
C782        C  0.11447187  0.46850352  0.76287741    -0.08300
C783        C  0.11990582  0.45142836  0.74455380     0.62100
H784        H  0.10628862  0.43274293  0.78558772     0.12800
H785        H  0.11209150  0.53368658  0.77645950     0.12800
C786        C  0.09514542  0.51241354  0.81688640     0.62300
F787        F  0.11273682  0.42179262  0.75030973    -0.22900
F788        F  0.14868240  0.96610488  0.73874024    -0.20200
F789        F  0.10125457  0.44868329  0.72727027    -0.19900
F790        F  0.11726074  0.51970112  0.83262801    -0.19900
F791        F  0.06583731  0.49314991  0.82524004    -0.20300
F792        F  0.09649047  0.53968138  0.81070463    -0.22900
C793        C  0.14953213  0.17230230  0.76151818    -0.05800
C794        C  0.13333737  0.14170758  0.75393048     0.00200
C795        C  0.10615045  0.11958856  0.76489339    -0.08400
C796        C  0.09880133  0.12777249  0.78465626    -0.05800
C797        C  0.11525601  0.15807270  0.79259778     0.00100
C798        C  0.14042540  0.18115658  0.78048482    -0.08300
C799        C  0.15743040  0.21494350  0.78727365     0.62100
H800        H  0.16955082  0.18918818  0.75254194     0.12800
H801        H  0.07947643  0.11051888  0.79389052     0.12800
C802        C  0.08380875  0.08797399  0.75543211     0.62300
F803        F  0.17776870  0.23380517  0.77153909    -0.22900
F804        F  0.17451290  0.21857886  0.80555262    -0.20200
F805        F  0.13632897  0.22483074  0.79128031    -0.19900
F806        F  0.09647042  0.06900988  0.75699054    -0.19900
F807        F  0.07796836  0.09083500  0.73412267    -0.20300
F808        F  0.05549630  0.07380862  0.76610252    -0.22900
C809        C  0.19888867  0.99307832  0.57150608    -0.05800
C810        C  0.19541482  0.01938640  0.57197943     0.00200
C811        C  0.20077407  0.03653247  0.55266434    -0.08400
C812        C  0.21379013  0.02945958  0.53485480    -0.05800
C813        C  0.22003442  0.00498536  0.53522989     0.00100
C814        C  0.21041065  0.98511431  0.55332237    -0.08300
C815        C  0.21123899  0.95513176  0.55445123     0.62100
H816        H  0.19349492  0.97895662  0.58576707     0.12800
H817        H  0.22014317  0.04375257  0.52063408     0.12800
C818        C  0.19308364  0.06231313  0.55051982     0.62300
F819        F  0.22958914  0.95650087  0.57155137    -0.22900
F820        F  0.22253285  0.94872228  0.53600634    -0.20200
F821        F  0.18048660  0.42716463  0.56336061    -0.19900
F822        F  0.21623639  0.08908813  0.55991572    -0.19900
F823        F  0.16479080  0.05389209  0.56021160    -0.20300
F824        F  0.19078109  0.06857993  0.52920847    -0.22900
C825        C  0.20663247  0.17749769  0.56570071    -0.05800
C826        C  0.22906970  0.17082328  0.57367416     0.00200
C827        C  0.25655123  0.17941442  0.56174626    -0.08400
C828        C  0.26040598  0.19438322  0.54199543    -0.05800
C829        C  0.23820218  0.20161254  0.53437609     0.00100
C830        C  0.21063949  0.19280444  0.54622624    -0.08300
C831        C  0.18564594  0.19974051  0.53855746     0.62100
H832        H  0.18544628  0.17014252  0.57481927     0.12800
H833        H  0.28136126  0.20163808  0.53264825     0.12800
C834        C  0.28223851  0.17419444  0.57011587     0.62300
F835        F  0.16225415  0.19158874  0.55363606    -0.22900
F836        F  0.17211492  0.18310026  0.52004725    -0.20200
F837        F  0.19844654  0.23100607  0.53447129    -0.19900
F838        F  0.27269552  0.14300422  0.56937524    -0.19900
F839        F  0.28940152  0.18474905  0.59104592    -0.20300
F840        F  0.30917880  0.18984566  0.55801856    -0.22900
C841        C  0.05287749  0.36036352  0.87202821    -0.05800
C842        C  0.04410699  0.38305106  0.87239215     0.00200
C843        C  0.02155828  0.38049046  0.88741630    -0.08400
C844        C  0.01051636  0.35662074  0.90283703    -0.05800
C845        C  0.02104033  0.33494390  0.90367605     0.00100
C846        C  0.04244741  0.33674852  0.88754257    -0.08300
C847        C  0.05547102  0.31490563  0.88678676     0.62100
H848        H  0.06895779  0.36198266  0.85960602     0.12800
H849        H  0.49383896  0.35566020  0.91662620     0.12800
C850        C  0.00895866  0.40264248  0.88685574     0.62300
F851        F  0.07456498  0.32016546  0.86917649    -0.22900
F852        F  0.03137006  0.28456989  0.88553715    -0.20200
F853        F  0.07310572  0.31914888  0.90495408    -0.19900
F854        F  0.98731001  0.39656274  0.90292238    -0.19900
F855        F  0.99464827  0.40000778  0.86733539    -0.20300
F856        F  0.53601074  0.43259740  0.89711362    -0.22900
C857        C  0.04277801  0.17969401  0.90425337    -0.05800
C858        C  0.06064567  0.21098064  0.91055062     0.00200
C859        C  0.08798078  0.23052889  0.89859726    -0.08400
C860        C  0.09457909  0.21875314  0.87981808    -0.05800
C861        C  0.07595599  0.18778375  0.87312162     0.00100
C862        C  0.05041235  0.16750357  0.88623000    -0.08300
C863        C  0.03086166  0.13280799  0.88259038     0.62100
H864        H  0.02235429  0.16431948  0.91358233     0.12800
H865        H  0.11456771  0.23383640  0.87008987     0.12800
C866        C  0.11102911  0.26313309  0.90605689     0.62300
F867        F  0.51897814  0.11462540  0.90141764    -0.22900
F868        F  0.04192614  0.12201059  0.86631765    -0.20200
F869        F  0.00065547  0.12526152  0.87779715    -0.19900
F870        F  0.11869428  0.26257266  0.92730030    -0.19900
F871        F  0.09827457  0.28202618  0.90397807    -0.20300
F872        F  0.13829909  0.27596463  0.89418153    -0.22900
C873        C  0.24289728  0.34272125  0.90211381    -0.05800
C874        C  0.27257060  0.33511697  0.91300156     0.00200
C875        C  0.30451069  0.33867135  0.89561384    -0.08400
C876        C  0.30547201  0.34828399  0.86713132    -0.05800
C877        C  0.27573135  0.35661736  0.85654995     0.00100
C878        C  0.24332521  0.35206813  0.87373393    -0.08300
C879        C  0.21629148  0.35386790  0.86476967     0.62100
H880        H  0.22336740  0.33891009  0.91201733     0.12800
H881        H  0.32510559  0.35218163  0.85721560     0.12800
C882        C  0.32789059  0.33084508  0.90403816     0.62300
F883        F  0.18967637  0.32529786  0.86689867    -0.22900
F884        F  0.22091086  0.36158864  0.84329664    -0.20200
F885        F  0.21233726  0.37568643  0.87592610    -0.19900
F886        F  0.31273055  0.30062753  0.91123425    -0.19900
F887        F  0.34423568  0.35058565  0.92075894    -0.20300
F888        F  0.34855437  0.33384592  0.88800448    -0.22900
C889        C  0.18074987  0.21007770  0.89079291    -0.05800
C890        C  0.16820965  0.18799539  0.90734591     0.00200
C891        C  0.13800723  0.16167717  0.90449908    -0.08400
C892        C  0.12134739  0.15950142  0.88568952    -0.05800
C893        C  0.13311539  0.18289832  0.87016000     0.00100
C894        C  0.16338680  0.20872674  0.87269395    -0.08300
C895        C  0.17824873  0.23602017  0.85741146     0.62100
H896        H  0.20392487  0.22995074  0.89260150     0.12800
H897        H  0.09843976  0.13964593  0.88309146     0.12800
C898        C  0.12261477  0.13643526  0.92129347     0.62300
F899        F  0.19074534  0.26342217  0.86899200    -0.22900
F900        F  0.15745718  0.23638872  0.84290151    -0.20200
F901        F  0.20200011  0.23518951  0.84627863    -0.19900
F902        F  0.11810572  0.14875458  0.94001144    -0.19900
F903        F  0.14114557  0.12355694  0.92534820    -0.20300
F904        F  0.09382605  0.11274729  0.91464010    -0.22900
C905        C  0.11585507  0.42687080  0.88620126    -0.05800
C906        C  0.10400311  0.44519503  0.87835869     0.00200
C907        C  0.11224369  0.47367017  0.88900341    -0.08400
C908        C  0.13305696  0.48313142  0.90639950    -0.05800
C909        C  0.14496609  0.46480379  0.91403599     0.00100
C910        C  0.13501659  0.43539971  0.90442643    -0.08300
C911        C  0.14362365  0.41245239  0.91355221     0.62100
H912        H  0.11083644  0.40606851  0.87753329     0.12800
H913        H  0.14004089  0.50517583  0.91417623     0.12800
C914        C  0.10018245  0.49523183  0.88302597     0.62300
F915        F  0.12561358  0.38317401  0.90478988    -0.22900
F916        F  0.13892399  0.40998270  0.93552020    -0.20200
F917        F  0.17420336  0.92261966  0.90580123    -0.19900
F918        F  0.07748373  0.48331140  0.86739368    -0.19900
F919        F  0.12479186  0.52295514  0.87591391    -0.20300
F920        F  0.08744063  0.50108693  0.90100508    -0.22900
C921        C  0.27433492  0.44063269  0.86619402    -0.05800
C922        C  0.28422623  0.41857341  0.86678994     0.00200
C923        C  0.28373410  0.40482358  0.88722028    -0.08400
C924        C  0.27411922  0.41452144  0.90557701    -0.05800
C925        C  0.26597883  0.43741194  0.90474483     0.00100
C926        C  0.26597624  0.45086427  0.88483190    -0.08300
C927        C  0.25828257  0.47674532  0.88334110     0.62100
H928        H  0.27303065  0.44992658  0.85085553     0.12800
H929        H  0.27305307  0.40424614  0.92105193     0.12800
C930        C  0.29389023  0.37955232  0.89029749     0.62300
F931        F  0.26889854  0.99317622  0.86310915    -0.22900
F932        F  0.28308498  0.00390774  0.89754585    -0.20200
F933        F  0.22771037  0.46590876  0.88931543    -0.19900
F934        F  0.32318628  0.39741361  0.88020859    -0.19900
F935        F  0.26216406  0.32470902  0.88101299    -0.20300
F936        F  0.30698496  0.38763697  0.91115031    -0.22900
C937        C  0.45666642  0.32271314  0.09558795    -0.05800
C938        C  0.43653210  0.29219036  0.08842507     0.00200
C939        C  0.40946951  0.27310430  0.10063240    -0.08400
C940        C  0.40526024  0.28412786  0.12051209    -0.05800
C941        C  0.42572230  0.31424548  0.12800937     0.00100
C942        C  0.45150101  0.33430790  0.11500730    -0.08300
C943        C  0.47353134  0.36778541  0.12143946     0.62100
H944        H  0.47716672  0.33729596  0.08610432     0.12800
H945        H  0.38543723  0.26923202  0.13030264     0.12800
C946        C  0.38395566  0.24215559  0.09214012     0.62300
F947        F  0.98897970  0.38323257  0.10705003    -0.22900
F948        F  0.49166851  0.36885731  0.13854482    -0.20200
F949        F  0.95178597  0.37878387  0.12952444    -0.19900
F950        F  0.39379914  0.22071700  0.09206708    -0.19900
F951        F  0.37622760  0.24578737  0.07148195    -0.20300
F952        F  0.35722918  0.23046775  0.10454848    -0.22900
C953        C  0.31804734  0.28930152  0.11314645    -0.05800
C954        C  0.32833226  0.31065891  0.09613595     0.00200
C955        C  0.35839712  0.33769506  0.09747288    -0.08400
C956        C  0.37768676  0.34058471  0.11480567    -0.05800
C957        C  0.36772702  0.31853178  0.13111015     0.00100
C958        C  0.33691694  0.29304708  0.13091534    -0.08300
C959        C  0.32366112  0.26994123  0.14931044     0.62100
H960        H  0.29484700  0.26933350  0.11244831     0.12800
H961        H  0.40076041  0.36059521  0.11606040     0.12800
C962        C  0.37053905  0.36368932  0.08108127     0.62300
F963        F  0.29451226  0.24523704  0.14445351    -0.22900
F964        F  0.32049058  0.28411390  0.16748081    -0.20200
F965        F  0.34298562  0.25821485  0.15389041    -0.19900
F966        F  0.34976589  0.37444035  0.07919846    -0.19900
F967        F  0.37454024  0.35317424  0.06140120    -0.20300
F968        F  0.39899067  0.38863644  0.08702562    -0.22900
C969        C  0.31331243  0.46633086  0.44897031    -0.05800
C970        C  0.31681842  0.48272932  0.42991296     0.00200
C971        C  0.30743121  0.50551786  0.42973971    -0.08400
C972        C  0.31146524  0.01269000  0.45486029    -0.05800
C973        C  0.28654297  0.49030962  0.46622259     0.00100
C974        C  0.29807355  0.46941506  0.46710979    -0.08300
C975        C  0.29628624  0.45115882  0.48706824     0.62100
H976        H  0.32169859  0.45000422  0.44940572     0.12800
H977        H  0.31576063  0.03555480  0.45926470     0.12800
C978        C  0.35239281  0.03775140  0.42607545     0.62300
F979        F  0.29260361  0.42262366  0.48140044    -0.22900
F980        F  0.27172473  0.44568506  0.50038474    -0.20200
F981        F  0.32373181  0.46754331  0.49844195    -0.19900
F982        F  0.34097911  0.04073385  0.40657135    -0.19900
F983        F  0.37890345  0.03565758  0.42279186    -0.20300
F984        F  0.36092353  0.06438195  0.43794877    -0.22900
C985        C  0.25036039  0.30289540  0.42882386    -0.05800
C986        C  0.28074432  0.32734868  0.42722418     0.00200
C987        C  0.30227725  0.33238175  0.44365419    -0.08400
C988        C  0.29296627  0.31144114  0.46083809    -0.05800
C989        C  0.26233505  0.28619028  0.46291099     0.00100
C990        C  0.24009101  0.28221746  0.44637708    -0.08300
C991        C  0.20463817  0.25552837  0.44641137     0.62100
H992        H  0.23460881  0.29962387  0.41577177     0.12800
H993        H  0.31037949  0.31428605  0.47238340     0.12800
C994        C  0.33519565  0.35986260  0.44287300     0.62300
F995        F  0.19084108  0.27166005  0.43711972    -0.22900
F996        F  0.19891773  0.26188059  0.46760594    -0.20200
F997        F  0.18561123  0.20185397  0.43562155    -0.19900
F998        F  0.33407710  0.38703680  0.44286443    -0.19900
F999        F  0.35006496  0.35841863  0.42445311    -0.20300
F1000       F  0.35275666  0.36066600  0.46034379    -0.22900
C1001       C  0.36928479  0.38097018  0.22448431    -0.05800
C1002       C  0.35750055  0.35906800  0.24115841     0.00200
C1003       C  0.36111285  0.33241001  0.23970612    -0.08400
C1004       C  0.37604621  0.32901456  0.22157573    -0.05800
C1005       C  0.38825923  0.35136494  0.20548263     0.00100
C1006       C  0.38519955  0.37797886  0.20691126    -0.08300
C1007       C  0.39899345  0.40446420  0.19095390     0.62100
H1008       H  0.36710021  0.40152582  0.22541074     0.12800
H1009       H  0.37829366  0.30863513  0.21967417     0.12800
C1010       C  0.35025522  0.30776687  0.25703660     0.62300
F1011       F  0.41885576  0.43148307  0.20181372    -0.22900
F1012       F  0.37525566  0.40748213  0.18184965    -0.20200
F1013       F  0.41587767  0.40084381  0.17463901    -0.19900
F1014       F  0.31862385  0.29505237  0.26049371    -0.19900
F1015       F  0.36643448  0.32074692  0.27582821    -0.20300
F1016       F  0.35539996  0.28375709  0.25141854    -0.22900
C1017       C  0.05142419  0.34376271  0.44586802    -0.05800
C1018       C  0.03016185  0.33371185  0.42867490     0.00200
C1019       C  0.00295822  0.30370030  0.42995996    -0.08400
C1020       C  0.99876013  0.28515955  0.44809188    -0.05800
C1021       C  0.02075033  0.29489830  0.46461951     0.00100
C1022       C  0.04752611  0.32488350  0.46366451    -0.08300
C1023       C  0.07276424  0.33660227  0.48080916     0.62100
H1024       H  0.07193387  0.36652037  0.44500711     0.12800
H1025       H  0.97836479  0.26236251  0.44941001     0.12800
C1026       C  0.97875478  0.29031345  0.41218658     0.62300
F1027       F  0.09832952  0.36479292  0.47535474    -0.22900
F1028       F  0.08292285  0.31558184  0.48351840    -0.20200
F1029       F  0.06140557  0.34066920  0.50007641    -0.19900
F1030       F  0.99242176  0.28788981  0.39343489    -0.19900
F1031       F  0.96599845  0.30910393  0.40898192    -0.20300
F1032       F  0.45090322  0.26336776  0.41822586    -0.22900
C1033       C  0.18484972  0.43338347  0.43532019    -0.05800
C1034       C  0.18702990  0.45640837  0.42120968     0.00200
C1035       C  0.20631317  0.48813759  0.42724025    -0.08400
C1036       C  0.22170336  0.49515316  0.44718294    -0.05800
C1037       C  0.21930146  0.47214031  0.46109237     0.00100
C1038       C  0.20033242  0.44065639  0.45525980    -0.08300
C1039       C  0.19587685  0.41484597  0.47019243     0.62100
H1040       H  0.17014507  0.40932405  0.43083968     0.12800
H1041       H  0.23551870  0.51900196  0.45241981     0.12800
C1042       C  0.21014762  0.51484447  0.41339478     0.62300
F1043       F  0.17620305  0.38583836  0.46154098    -0.22900
F1044       F  0.18312148  0.41719350  0.48939008    -0.20200
F1045       F  0.22423826  0.41695202  0.47406633    -0.19900
F1046       F  0.18146549  0.51244995  0.40999932    -0.19900
F1047       F  0.22353125  0.51444999  0.39397133    -0.20300
F1048       F  0.22924670  0.54336713  0.42292416    -0.22900
C1049       C  0.45920170  0.38350322  0.21319631    -0.05800
C1050       C  0.44895653  0.35333527  0.20533301     0.00200
C1051       C  0.45527679  0.33321458  0.21759899    -0.08400
C1052       C  0.47323194  0.34472936  0.23648177    -0.05800
C1053       C  0.48411701  0.37515081  0.24393022     0.00100
C1054       C  0.47560984  0.39433433  0.23268134    -0.08300
C1055       C  0.98692177  0.42631864  0.23570194     0.62100
H1056       H  0.45369996  0.39852726  0.20407592     0.12800
H1057       H  0.47957469  0.33010532  0.24536714     0.12800
C1058       C  0.44313676  0.29969800  0.21105584     0.62300
F1059       F  0.97311730  0.43913066  0.22333943    -0.22900
F1060       F  0.01870597  0.44353499  0.23248669    -0.20200
F1061       F  0.98021019  0.42856291  0.25697936    -0.19900
F1062       F  0.45942584  0.29848662  0.19340344    -0.19900
F1063       F  0.41179720  0.28545879  0.20610055    -0.20300
F1064       F  0.44659742  0.28294374  0.22737739    -0.22900
C1065       C  0.48038242  0.14413697  0.09491965    -0.05800
C1066       C  0.47211348  0.16750081  0.09532842     0.00200
C1067       C  0.45276721  0.16718135  0.11249922    -0.08400
C1068       C  0.44261182  0.14364538  0.12807345    -0.05800
C1069       C  0.44920396  0.11944063  0.12657101     0.00100
C1070       C  0.46897494  0.11996275  0.11001569    -0.08300
C1071       C  0.47756098  0.09480416  0.10805668     0.62100
H1072       H  0.00156015  0.14864030  0.08656503     0.12800
H1073       H  0.42830813  0.14321774  0.14139646     0.12800
C1074       C  0.44173098  0.19056857  0.11439208     0.62300
F1075       F  0.96309010  0.07105301  0.11239954    -0.22900
F1076       F  0.49133482  0.09301248  0.12682265    -0.20200
F1077       F  0.49819050  0.10031643  0.09136318    -0.19900
F1078       F  0.42291065  0.18729349  0.09712189    -0.19900
F1079       F  0.46706126  0.22028113  0.11499290    -0.20300
F1080       F  0.42443202  0.18642212  0.13284142    -0.22900
C1081       C  0.35837839  0.01890928  0.09511370    -0.05800
C1082       C  0.34869439  0.03837146  0.08602371     0.00200
C1083       C  0.35961158  0.06829050  0.09526615    -0.08400
C1084       C  0.37813184  0.07663715  0.11392091    -0.05800
C1085       C  0.38791663  0.05728872  0.12304752     0.00100
C1086       C  0.37796095  0.02780712  0.11333471    -0.08300
C1087       C  0.38651352  0.00474718  0.12229848     0.62100
H1088       H  0.36248026  0.50327670  0.08255983     0.12800
H1089       H  0.38452046  0.09831979  0.12185112     0.12800
C1090       C  0.35278847  0.09204245  0.08527394     0.62300
F1091       F  0.37865681  0.48270499  0.11795279    -0.22900
F1092       F  0.41650320  0.01951224  0.13029452    -0.20200
F1093       F  0.38490605  0.98428224  0.10655878    -0.19900
F1094       F  0.32181656  0.08323213  0.08820996    -0.19900
F1095       F  0.35956673  0.09467046  0.06356866    -0.20300
F1096       F  0.37057262  0.12111824  0.09440645    -0.22900
C1097       C  0.38418014  0.04512209  0.21466145    -0.05800
C1098       C  0.40156146  0.03834130  0.20008295     0.00200
C1099       C  0.40986063  0.01591009  0.20548121    -0.08400
C1100       C  0.40142188  0.00193420  0.22570833    -0.05800
C1101       C  0.38499737  0.00935965  0.24092525     0.00100
C1102       C  0.37569450  0.03119032  0.23507581    -0.08300
C1103       C  0.35652647  0.03966706  0.24979128     0.62100
H1104       H  0.37785704  0.06212104  0.20997318     0.12800
H1105       H  0.40800138  0.98481007  0.22957458     0.12800
C1106       C  0.42684658  0.00505293  0.19056866     0.62300
F1107       F  0.34950234  0.06050169  0.24033500    -0.22900
F1108       F  0.37296579  0.05327339  0.26838367    -0.20200
F1109       F  0.33143945  0.50978439  0.25461187    -0.19900
F1110       F  0.45218407  0.00681045  0.20112482    -0.19900
F1111       F  0.43747852  0.02203741  0.17194764    -0.20300
F1112       F  0.40678010  0.97455555  0.18494389    -0.22900
C1113       C  0.18705137  0.13515337  0.12615391    -0.05800
C1114       C  0.21249040  0.13564914  0.13629045     0.00200
C1115       C  0.24213179  0.15103194  0.12635923    -0.08400
C1116       C  0.24447636  0.16221137  0.10546512    -0.05800
C1117       C  0.21874738  0.16054531  0.09477418     0.00100
C1118       C  0.18964904  0.14773800  0.10560898    -0.08300
C1119       C  0.16168029  0.14818180  0.09607724     0.62100
H1120       H  0.16466641  0.12349832  0.13417101     0.12800
H1121       H  0.26707422  0.17338278  0.09766666     0.12800
C1122       C  0.27200039  0.15715002  0.13723992     0.62300
F1123       F  0.13678468  0.13663666  0.11020391    -0.22900
F1124       F  0.15183433  0.13023397  0.07767337    -0.20200
F1125       F  0.16962014  0.17827759  0.09119843    -0.19900
F1126       F  0.28403951  0.14092757  0.12674141    -0.19900
F1127       F  0.26775390  0.14909538  0.15865729    -0.20300
F1128       F  0.29360377  0.18841029  0.13613203    -0.22900
C1129       C  0.24469884  0.06717351  0.10791489    -0.05800
C1130       C  0.22646820  0.06560487  0.09021385     0.00200
C1131       C  0.20043419  0.06975522  0.09335946    -0.08400
C1132       C  0.19322577  0.07441104  0.11429688    -0.05800
C1133       C  0.21191296  0.07676191  0.13185318     0.00100
C1134       C  0.23759283  0.07207591  0.12883968    -0.08300
C1135       C  0.25669587  0.07067265  0.14741867     0.62100
H1136       H  0.26366831  0.06262813  0.10543856     0.12800
H1137       H  0.17271076  0.07632965  0.11718047     0.12800
C1138       C  0.17989093  0.06898506  0.07504735     0.62300
F1139       F  0.28313955  0.07053770  0.14032790    -0.22900
F1140       F  0.23907927  0.04381311  0.15891036    -0.20200
F1141       F  0.26613665  0.09583057  0.16091867    -0.19900
F1142       F  0.15964083  0.03865663  0.06908067    -0.19900
F1143       F  0.19791661  0.08533289  0.05763706    -0.20300
F1144       F  0.16224444  0.08223417  0.08099253    -0.22900
C1145       C  0.14719957  0.02156102  0.20252783    -0.05800
C1146       C  0.17532740  0.04912516  0.20644214     0.00200
C1147       C  0.19145675  0.05257749  0.22581935    -0.08400
C1148       C  0.17739255  0.02934869  0.24134560    -0.05800
C1149       C  0.14680781  0.49832090  0.23760775     0.00100
C1150       C  0.13336520  0.49268742  0.21686875    -0.08300
C1151       C  0.10590586  0.46155152  0.21053959     0.62100
H1152       H  0.13555078  0.01924307  0.18738918     0.12800
H1153       H  0.18941113  0.03297991  0.25650222     0.12800
C1154       C  0.22343296  0.07979483  0.23108034     0.62300
F1155       F  0.10092868  0.45927411  0.18860011    -0.22900
F1156       F  0.07917535  0.45751613  0.22046996    -0.20200
F1157       F  0.11139101  0.43800869  0.21650430    -0.19900
F1158       F  0.22077679  0.09657454  0.24789591    -0.19900
F1159       F  0.23743256  0.09941114  0.21397863    -0.20300
F1160       F  0.24291731  0.06882926  0.23727628    -0.22900
C1161       C  0.99867970  0.19165486  0.43209981    -0.05800
C1162       C  0.02523626  0.20996737  0.41971103     0.00200
C1163       C  0.04669546  0.24053403  0.42673319    -0.08400
C1164       C  0.04255989  0.25043434  0.44700221    -0.05800
C1165       C  0.01660525  0.23190709  0.45985161     0.00100
C1166       C  0.99356526  0.20229445  0.45194076    -0.08300
C1167       C  0.46002293  0.18174319  0.45929916     0.62100
H1168       H  0.98229975  0.16857967  0.42637753     0.12800
H1169       H  0.05983378  0.27294121  0.45301199     0.12800
C1170       C  0.07329101  0.26326245  0.41256157     0.62300
F1171       F  0.94134131  0.15916434  0.45079914    -0.22900
F1172       F  0.95100126  0.19933081  0.47193904    -0.20200
F1173       F  0.46382843  0.16534083  0.47562640    -0.19900
F1174       F  0.06219318  0.26339356  0.39225577    -0.19900
F1175       F  0.09599391  0.25506067  0.41110859    -0.20300
F1176       F  0.08705219  0.29318984  0.42060021    -0.22900
C1177       C  0.21088913  0.23556547  0.41317932    -0.05800
C1178       C  0.17066531  0.22631609  0.41752670     0.00200
C1179       C  0.15266560  0.21371310  0.44439136    -0.08400
C1180       C  0.17474862  0.20888072  0.46627259    -0.05800
C1181       C  0.21557618  0.21902115  0.46146457     0.00100
C1182       C  0.23307631  0.23065556  0.43458534    -0.08300
C1183       C  0.26451050  0.23480045  0.42957380     0.62100
H1184       H  0.22096233  0.24179427  0.39726397     0.12800
H1185       H  0.16511365  0.20338808  0.48220678     0.12800
C1186       C  0.11950715  0.20510847  0.44826893     0.62300
F1187       F  0.26125189  0.21348764  0.41403714    -0.22900
F1188       F  0.27764757  0.23010315  0.44763551    -0.20200
F1189       F  0.28393972  0.26425916  0.42186728    -0.19900
F1190       F  0.11119065  0.19553472  0.46922441    -0.19900
F1191       F  0.10027863  0.18119008  0.43463710    -0.20300
F1192       F  0.11589028  0.23042544  0.44466065    -0.22900
C1193       C  0.48278007  0.08099980  0.20339125    -0.05800
C1194       C  0.46263731  0.09289835  0.20114518     0.00200
C1195       C  0.45866280  0.10892659  0.21859552    -0.08400
C1196       C  0.47447694  0.11166217  0.23788400    -0.05800
C1197       C  0.49431496  0.09920099  0.24052778     0.00100
C1198       C  0.49856437  0.08356561  0.22275327    -0.08300
C1199       C  0.02198521  0.07672652  0.22214658     0.62100
H1200       H  0.48575705  0.06923070  0.18972218     0.12800
H1201       H  0.47152565  0.12435369  0.25100155     0.12800
C1202       C  0.43875423  0.12423398  0.21783844     0.62300
F1203       F  0.02232117  0.06302323  0.20283182    -0.22900
F1204       F  0.01541319  0.05523404  0.23816994    -0.20200
F1205       F  0.05127986  0.10223304  0.22506290    -0.19900
F1206       F  0.41730422  0.11310068  0.23441082    -0.19900
F1207       F  0.42270587  0.11926767  0.19880963    -0.20300
F1208       F  0.45773298  0.15583709  0.22053614    -0.22900
C1209       C  0.14590034  0.08886379  0.21891502    -0.05800
C1210       C  0.17606418  0.11014592  0.21186648     0.00200
C1211       C  0.19298783  0.13899347  0.22287390    -0.08400
C1212       C  0.17809535  0.14586039  0.23954050    -0.05800
C1213       C  0.14794649  0.12437767  0.24660524     0.00100
C1214       C  0.13231617  0.09460986  0.23686895    -0.08300
C1215       C  0.10229029  0.06825644  0.24585205     0.62100
H1216       H  0.13265829  0.06744987  0.21008238     0.12800
H1217       H  0.19056083  0.16821340  0.24749342     0.12800
C1218       C  0.22665329  0.16334701  0.21828223     0.62300
F1219       F  0.09468522  0.04014504  0.23634170    -0.22900
F1220       F  0.07813513  0.07379452  0.24229342    -0.20200
F1221       F  0.10535764  0.06552966  0.26764871    -0.19900
F1222       F  0.22756971  0.18959460  0.21026591    -0.19900
F1223       F  0.24139362  0.15374683  0.20391990    -0.20300
F1224       F  0.24349417  0.17108019  0.23719306    -0.22900
O1225       O  0.02667351  0.64237735  0.32632522    -0.88300
C1226       C  0.09855721  0.68701648  0.28258322     0.87700
Mg1227     Mg  0.02136548  0.66450302  0.35460752     1.58100
O1228       O  0.10505158  0.63384822  0.31695951    -0.88100
O1229       O  0.03040571  0.60228253  0.31621031    -0.75400
C1230       C  0.15971663  0.72962678  0.39685304     0.92800
O1231       O  0.05993568  0.71444711  0.31316121    -0.75200
O1232       O  0.13498710  0.73094249  0.39860787    -0.82700
Mg1233     Mg  0.03347990  0.66663219  0.29658190     1.58000
C1234       C  0.19451283  0.66758783  0.34547452     0.92700
O1235       O  0.00470484  0.62244046  0.27685460    -0.81000
H1236       H  0.09099619  0.59151112  0.32859166    -0.06300
C1237       C  0.15111691  0.72521315  0.33337001     0.87600
O1238       O  0.04576406  0.64442414  0.37518878    -0.75500
O1239       O  0.07655726  0.66544079  0.29201436    -0.88200
O1240       O  0.17845726  0.65757908  0.32829295    -0.81100
C1241       C  0.13592058  0.63444327  0.26510435     0.92800
C1242       C  0.01327585  0.61136687  0.26156965     0.92600
Mg1243     Mg  0.13948166  0.67605247  0.36480015     1.58000
O1244       O  0.16746224  0.72406527  0.37885117    -0.81000
O1245       O  0.11324202  0.62642862  0.35033299    -0.75200
O1246       O  0.10758989  0.62800473  0.26564558    -0.81100
O1247       O  0.48339039  0.65753622  0.29960553    -0.82800
O1248       O  0.06448362  0.70670468  0.39790513    -0.81100
C1249       C  0.10255134  0.61616096  0.33165274     0.87100
O1250       O  0.09543819  0.67449523  0.36929330    -0.88200
O1251       O  0.14312515  0.69746414  0.33492984    -0.88300
O1252       O  0.13862862  0.73737577  0.34481543    -0.75400
Mg1253     Mg  0.07061521  0.61950015  0.29161983     1.58000
O1254       O  0.15474198  0.64898995  0.28026754    -0.82800
H1255       H  0.99791658  0.59977538  0.33734453    -0.06500
O1256       O  0.06499009  0.70544407  0.34674561    -0.88000
H1257       H  0.08010000  0.74825594  0.33579673    -0.06300
H1258       H  0.07931683  0.63858380  0.38938427    -0.06500
C1259       C  0.06861976  0.72373587  0.33225564     0.87100
C1260       C  0.01735002  0.61433144  0.32704501     0.87600
C1261       C  0.07399308  0.65207026  0.37847626     0.87700
H1262       H  0.16910057  0.73946481  0.32201339    -0.06500
O1263       O  0.12647626  0.69397131  0.28636038    -0.75500
Mg1264     Mg  0.10022282  0.71942735  0.37112920     1.58000
H1265       H  0.09399807  0.70031546  0.27100671    -0.06500
C1266       C  0.47382632  0.66695387  0.31531114     0.92700
O1267       O  0.01677032  0.68887643  0.38487762    -0.82700
C1268       C  0.03700828  0.70227709  0.39963523     0.92700
O1269       O  0.03693534  0.60814041  0.26378782    -0.82700
Mg1270     Mg  0.14919108  0.67388314  0.30856465     1.58200
O1271       O  0.99016052  0.67903788  0.33602099    -0.81000
O1272       O  0.18627641  0.67886686  0.36067792    -0.82700
C1273       C  0.18377405  0.59866137  0.19207661     0.02300
C1274       C  0.18352317  0.57007941  0.18956594     0.02300
C1275       C  0.19312770  0.56354449  0.17005824    -0.18300
C1276       C  0.20375156  0.58485741  0.15329739     0.02300
C1277       C  0.20311085  0.61272843  0.15536568     0.02300
C1278       C  0.19238470  0.61891126  0.17449085    -0.18300
H1279       H  0.19084924  0.63980637  0.17571465     0.04300
H1280       H  0.19258104  0.54166393  0.16790823     0.04300
C1281       C  0.44474723  0.58517194  0.18166025     0.02300
C1282       C  0.41621071  0.55719189  0.17997566     0.02300
C1283       C  0.39974456  0.54929205  0.16043428    -0.18300
C1284       C  0.41150857  0.56881521  0.14233561     0.02300
C1285       C  0.43974069  0.59771478  0.14458001     0.02300
C1286       C  0.45608863  0.60517558  0.16409716    -0.18300
H1287       H  0.47773258  0.62696713  0.16571560     0.04300
H1288       H  0.37784677  0.52769660  0.15923061     0.04300
O1289       O  0.14415677  0.94585792  0.33617691    -0.88300
C1290       C  0.07876820  0.93782618  0.37942508     0.87700
Mg1291     Mg  0.14766465  0.96437901  0.30462765     1.58100
O1292       O  0.06520987  0.86844830  0.35449793    -0.88100
O1293       O  0.13938070  0.90447825  0.35139669    -0.75400
C1294       C  0.00633856  0.88921558  0.26230860     0.92800
O1295       O  0.11383418  0.98882006  0.34128312    -0.75200
O1296       O  0.03132088  0.91536823  0.26152108    -0.82700
Mg1297     Mg  0.14165202  0.97298868  0.36216261     1.58000
C1298       C  0.47678274  0.80579958  0.33212791     0.92700
O1299       O  0.17069365  0.96272900  0.38677598    -0.81000
H1300       H  0.07765098  0.83669327  0.34846213    -0.06300
C1301       C  0.01866496  0.90809055  0.32621554     0.87600
O1302       O  0.12166946  0.91549560  0.28992975    -0.75500
O1303       O  0.09948281  0.93312686  0.37262186    -0.88200
O1304       O  0.99083794  0.82076845  0.34995210    -0.81100
C1305       C  0.03854352  0.85366950  0.40821220     0.92800
C1306       C  0.16542056  0.94298404  0.40151707     0.92600
Mg1307     Mg  0.02927702  0.86131124  0.30291705     1.58000
O1308       O  0.00022267  0.87105299  0.27824716    -0.81000
O1309       O  0.05612114  0.84444043  0.32362277    -0.75200
O1310       O  0.06747300  0.87269687  0.40538423    -0.81100
O1311       O  0.18607965  0.51518891  0.34940547    -0.82800
O1312       O  0.10518013  0.96246436  0.25827800    -0.81100
C1313       C  0.06656700  0.84920428  0.34266004     0.87100
O1314       O  0.07213207  0.90080054  0.29208428    -0.88200
O1315       O  0.02726040  0.88904092  0.32896559    -0.88300
O1316       O  0.03119454  0.92896312  0.31204637    -0.75400
Mg1317     Mg  0.10201320  0.89151583  0.37732915     1.58000
O1318       O  0.01873986  0.84932570  0.39381672    -0.82800
H1319       H  0.17085318  0.92786522  0.32793245    -0.06500
O1320       O  0.10523424  0.96556097  0.31005213    -0.88000
H1321       H  0.09134272  0.99604586  0.31680232    -0.06300
H1322       H  0.08734851  0.87476973  0.27786619    -0.06500
C1323       C  0.10313159  0.98405495  0.32227611     0.87100
C1324       C  0.15252731  0.92650395  0.33813914     0.87600
C1325       C  0.09326179  0.89620509  0.28604456     0.87700
H1326       H  0.00036779  0.90720221  0.33621601    -0.06500
O1327       O  0.05020528  0.91884759  0.37588544    -0.75500
Mg1328     Mg  0.06926754  0.94207977  0.28632108     1.58000
H1329       H  0.08518220  0.95914150  0.38794802    -0.06500
C1330       C  0.19404127  0.52708880  0.33080264     0.92700
O1331       O  0.15248675  0.98446247  0.27225928    -0.82700
C1332       C  0.13444924  0.98109950  0.25686969     0.92700
O1333       O  0.14074146  0.91653495  0.40145189    -0.82700
Mg1334     Mg  0.02330217  0.87029410  0.36092664     1.58200
O1335       O  0.17914625  0.51290881  0.31402378    -0.81000
O1336       O  0.48466567  0.81897381  0.31392126    -0.82700
O1337       O  0.30869675  0.86127555  0.34155958    -0.88300
C1338       C  0.37440088  0.93262226  0.37746783     0.87700
Mg1339     Mg  0.31871154  0.85566663  0.30895836     1.58100
O1340       O  0.31240731  0.94116876  0.35871093    -0.88100
O1341       O  0.27530145  0.86764580  0.36059637    -0.75400
C1342       C  0.37578298  0.99118014  0.26140236     0.92800
O1343       O  0.38357957  0.89028578  0.33944102    -0.75200
O1344       O  0.37790476  0.96683981  0.26207537    -0.82700
Mg1345     Mg  0.34379872  0.86623729  0.36395811     1.58000
C1346       C  0.33551630  0.52868549  0.33274973     0.92700
O1347       O  0.31008640  0.84101202  0.39176059    -0.81000
H1348       H  0.26707443  0.92769674  0.35732877    -0.06300
C1349       C  0.39320044  0.98725438  0.32472853     0.87600
O1350       O  0.29326758  0.88044220  0.29660597    -0.75500
O1351       O  0.34841014  0.91024935  0.37336456    -0.88200
O1352       O  0.33233539  0.01407441  0.35168336    -0.81100
C1353       C  0.33152741  0.97129452  0.41104236     0.92800
C1354       C  0.29995662  0.84860920  0.40816555     0.92600
Mg1355     Mg  0.33130894  0.97333649  0.30569973     1.58000
O1356       O  0.36525312  0.99922035  0.27740749    -0.81000
O1357       O  0.29140016  0.94834694  0.33023433    -0.75200
O1358       O  0.33037232  0.94531409  0.40927390    -0.81100
O1359       O  0.33674151  0.81907844  0.35299660    -0.82800
O1360       O  0.34831749  0.89554762  0.26122394    -0.81100
C1361       C  0.28939546  0.93862588  0.34928484     0.87100
O1362       O  0.32735295  0.93002041  0.29657257    -0.88200
O1363       O  0.36601238  0.97972109  0.32904420    -0.88300
O1364       O  0.39953408  0.97238912  0.31092782    -0.75400
Mg1365     Mg  0.30561963  0.90802987  0.38338061     1.58000
O1366       O  0.33955000  0.98951146  0.39521204    -0.82800
H1367       H  0.26269848  0.83376997  0.33813374    -0.06500
O1368       O  0.36217055  0.89850335  0.31172239    -0.88000
H1369       H  0.40710716  0.91027968  0.31198679    -0.06300
H1370       H  0.28387047  0.91324053  0.28583697    -0.06500
C1371       C  0.38515750  0.90005151  0.32049100     0.87100
C1372       C  0.28153322  0.85314430  0.34644029     0.87600
C1373       C  0.30101645  0.90830842  0.29250341     0.87700
H1374       H  0.41196253  0.00641124  0.33325170    -0.06500
O1375       O  0.38076402  0.96039294  0.37418611    -0.75500
Mg1376     Mg  0.37036289  0.93225837  0.28757924     1.58000
H1377       H  0.39223911  0.92848536  0.38384520    -0.06500
C1378       C  0.33807697  0.80973927  0.33414598     0.92700
O1379       O  0.33111239  0.84970835  0.27581424    -0.82700
C1380       C  0.34247917  0.86766245  0.26003355     0.92700
O1381       O  0.29856048  0.87333676  0.40905003    -0.82700
Mg1382     Mg  0.35438032  0.98471848  0.36169938     1.58200
O1383       O  0.33928634  0.82496057  0.31760367    -0.81000
O1384       O  0.33931479  0.51952109  0.31447768    -0.82700
C1385       C  0.39622829  0.83888132  0.18756793     0.02300
C1386       C  0.42444212  0.83837183  0.18764536     0.02300
C1387       C  0.43310053  0.82850056  0.16878896    -0.18300
C1388       C  0.41428366  0.81958014  0.15008771     0.02300
C1389       C  0.38577613  0.81989117  0.15094434     0.02300
C1390       C  0.37768828  0.83000917  0.16938434    -0.18300
H1391       H  0.35702305  0.83224302  0.16939011     0.04300
H1392       H  0.45456903  0.82797747  0.16868507     0.04300
O1393       O  0.21500108  0.52759980  0.00770990    -0.88300
C1394       C  0.23889260  0.97616622  0.04573252     0.87700
Mg1395     Mg  0.18906216  0.50944955  0.97889804     1.58100
O1396       O  0.30293812  0.53337713  0.01436672    -0.88100
O1397       O  0.26090556  0.56557646  0.01705298    -0.75400
C1398       C  0.26079725  0.94947891  0.92503474     0.92800
O1399       O  0.17423466  0.95200666  0.01566702    -0.75200
O1400       O  0.23413012  0.94646916  0.92796366    -0.82700
Mg1401     Mg  0.19498910  0.99745989  0.03494666     1.58000
C1402       C  0.36081865  0.50541003  0.98232727     0.92700
O1403       O  0.21127363  0.53670073  0.05882976    -0.81000
H1404       H  0.33319383  0.57740012  0.00689976    -0.06300
C1405       C  0.25807581  0.94430899  0.99034355     0.87600
O1406       O  0.23439989  0.53212920  0.95862566    -0.75500
O1407       O  0.23944510  0.99920102  0.03807729    -0.88200
O1408       O  0.35253110  0.50926070  0.00099389    -0.81100
C1409       C  0.33141731  0.52949804  0.06611497     0.92800
C1410       C  0.23378185  0.55333645  0.07118189     0.92600
Mg1411     Mg  0.29840840  0.50159562  0.96258806     1.58000
O1412       O  0.28206753  0.96118595  0.93919369    -0.81000
O1413       O  0.32072345  0.54714421  0.98191811    -0.75200
O1414       O  0.30860392  0.53445209  0.06567986    -0.81100
O1415       O  0.14840620  0.99672180  0.03228802    -0.82800
O1416       O  0.18715060  0.96924459  0.93164645    -0.81100
C1417       C  0.31965260  0.55364374  0.00149048     0.87100
O1418       O  0.25485199  0.50215944  0.95990435    -0.88200
O1419       O  0.27809207  0.97206990  0.99107163    -0.88300
O1420       O  0.23315259  0.93463415  0.97954552    -0.75400
Mg1421     Mg  0.28232615  0.54578552  0.04014860     1.58000
O1422       O  0.33648141  0.51586818  0.05048747    -0.82800
H1423       H  0.23077888  0.57118337  0.99829906    -0.06500
O1424       O  0.19072453  0.96648403  0.98304392    -0.88000
H1425       H  0.16227276  0.92205358  0.99054713    -0.06300
H1426       H  0.27437148  0.54155639  0.94317733    -0.06500
C1427       C  0.17501793  0.94585127  0.99598804     0.87100
C1428       C  0.23498585  0.55535891  0.00753670     0.87600
C1429       C  0.25545042  0.52580543  0.95341440     0.87700
H1430       H  0.26157761  0.92790724  0.99943976    -0.06500
O1431       O  0.25945438  0.96907114  0.04091468    -0.75500
Mg1432     Mg  0.21220021  0.95581634  0.95666741     1.58000
H1433       H  0.22019252  0.96142448  0.05648556    -0.06500
C1434       C  0.13137072  0.99288640  0.01605737     0.92700
O1435       O  0.15762636  0.98506288  0.94796327    -0.82700
C1436       C  0.16356559  0.97296786  0.93188526     0.92700
O1437       O  0.26114137  0.55829213  0.06763857    -0.82700
Mg1438     Mg  0.30417897  0.99077490  0.02047602     1.58200
O1439       O  0.14008736  0.99112981  0.99700104    -0.85800
O1440       O  0.34374512  0.50007445  0.96585499    -0.82700
O1441       O  0.27305920  0.81088174  0.99987272    -0.88300
C1442       C  0.26767865  0.74216257  0.96017251     0.87700
Mg1443     Mg  0.29176089  0.81598705  0.03124827     1.58100
O1444       O  0.19583614  0.72439959  0.98353264    -0.88100
O1445       O  0.22746112  0.79776626  0.98638957    -0.75400
C1446       C  0.22270865  0.67851380  0.07577949     0.92800
O1447       O  0.32080931  0.78351439  0.99637237    -0.75200
O1448       O  0.24809536  0.70399833  0.07462988    -0.82700
Mg1449     Mg  0.30067746  0.80593882  0.97453422     1.58000
C1450       C  0.13761210  0.63664042  0.00543199     0.92700
O1451       O  0.28795490  0.82953505  0.94821363    -0.81000
H1452       H  0.16018344  0.73230786  0.98595050    -0.06300
C1453       C  0.24013890  0.68499697  0.01232565     0.87600
O1454       O  0.24230001  0.78728349  0.04583414    -0.75500
O1455       O  0.26130636  0.76179288  0.96668065    -0.88200
O1456       O  0.15184301  0.65013159  0.98840017    -0.81100
C1457       C  0.18594882  0.69796342  0.92969223     0.92800
C1458       C  0.26593283  0.82123740  0.93475847     0.92600
Mg1459     Mg  0.18943484  0.69323411  0.03449584     1.58000
O1460       O  0.20260305  0.66901058  0.06072675    -0.81000
O1461       O  0.16872012  0.71498812  0.01278607    -0.75200
O1462       O  0.20313693  0.72676407  0.93338185    -0.81100
O1463       O  0.34235759  0.85226602  0.98363275    -0.82800
O1464       O  0.28285372  0.77493648  0.07630668    -0.81100
C1465       C  0.17413021  0.72393522  0.99352536     0.87100
O1466       O  0.22825417  0.73820544  0.04261235    -0.88200
O1467       O  0.21841668  0.69003911  0.00950903    -0.88300
O1468       O  0.26223110  0.70127972  0.02518863    -0.75400
Mg1469     Mg  0.21759087  0.76058293  0.96116235     1.58000
O1470       O  0.18074499  0.67810149  0.94409201    -0.82800
H1471       H  0.24977733  0.83255422  0.00797891    -0.06500
O1472       O  0.29409513  0.77469619  0.02574571    -0.88000
H1473       H  0.32868318  0.76523086  0.02300384    -0.06300
H1474       H  0.20092416  0.75217060  0.05655635    -0.06500
C1475       C  0.31522678  0.77428366  0.01558198     0.87100
C1476       C  0.25052297  0.81490731  0.99824504     0.87600
C1477       C  0.22284659  0.75870251  0.04873204     0.87700
H1478       H  0.24087673  0.66694881  0.00308314    -0.06500
O1479       O  0.24965265  0.71348861  0.96342815    -0.75500
Mg1480     Mg  0.27137678  0.73968370  0.04950375     1.58000
H1481       H  0.28963869  0.74968461  0.95209703    -0.06500
C1482       C  0.35450079  0.86290124  0.00192532     0.92700
O1483       O  0.31406520  0.82116695  0.06316888    -0.82700
C1484       C  0.30689497  0.80158548  0.07798199     0.92700
O1485       O  0.23950233  0.79738382  0.93701800    -0.82700
Mg1486     Mg  0.20069574  0.68440142  0.97752415     1.58200
O1487       O  0.34115613  0.85001348  0.01940222    -0.81000
O1488       O  0.14856382  0.64655469  0.02415346    -0.82700
O1489       O  0.02816302  0.72270165  0.99495304    -0.88300
C1490       C  0.46813883  0.72775168  0.95308819     0.87700
Mg1491     Mg  0.01515966  0.70545577  0.02752147     1.58100
O1492       O  0.02499094  0.79879766  0.97482178    -0.88100
O1493       O  0.06328842  0.76269663  0.97727457    -0.75400
C1494       C  0.44585189  0.77878592  0.07041410     0.92800
O1495       O  0.45325527  0.67773821  0.99243906    -0.75200
O1496       O  0.44425733  0.75252047  0.07073039    -0.82700
Mg1497     Mg  0.49635945  0.69327558  0.97103739     1.58000
C1498       C  0.99457323  0.85867738  0.99777876     0.92700
O1499       O  0.03442065  0.70231470  0.94392052    -0.81000
H1500       H  0.06956978  0.83008931  0.98041330    -0.06300
C1501       C  0.43815565  0.75799925  0.00634110     0.87600
O1502       O  0.03698833  0.75443652  0.04180226    -0.75500
O1503       O  0.49373201  0.73288976  0.95967916    -0.88200
O1504       O  0.99352994  0.84433590  0.98064422    -0.81100
C1505       C  0.01064298  0.81252289  0.92174196     0.92800
C1506       C  0.04849932  0.72088936  0.92839063     0.92600
Mg1507     Mg  0.99855161  0.80717312  0.02800585     1.58000
O1508       O  0.45879105  0.79763834  0.05485349    -0.81000
O1509       O  0.04088317  0.82258444  0.00576238    -0.75200
O1510       O  0.02158752  0.79417852  0.92324979    -0.81100
O1511       O  0.49858825  0.65092398  0.98319325    -0.82800
O1512       O  0.47451073  0.70973099  0.07476633    -0.81100
C1513       C  0.04600438  0.81781278  0.98652499     0.87100
O1514       O  0.00174108  0.76818139  0.03901120    -0.88200
O1515       O  0.46564040  0.77785813  0.00332305    -0.88300
O1516       O  0.43050154  0.73720488  0.02048590    -0.75400
Mg1517     Mg  0.03782479  0.77461430  0.95150129     1.58000
O1518       O  0.99523192  0.81534485  0.93709739    -0.82800
H1519       H  0.07362440  0.74200037  0.00128817    -0.06500
O1520       O  0.46911015  0.70170776  0.02330037    -0.88000
H1521       H  0.42448887  0.67053570  0.01768742    -0.06300
H1522       H  0.04268969  0.79511115  0.05332403    -0.06500
C1523       C  0.44808554  0.68264982  0.01162309     0.87100
C1524       C  0.05567074  0.74213683  0.99158199     0.87600
C1525       C  0.02750377  0.77343232  0.04528129     0.87700
H1526       H  0.42027673  0.75795149  0.99644001    -0.06500
O1527       O  0.45854798  0.74671018  0.95642431    -0.75500
Mg1528     Mg  0.45645996  0.72608250  0.04636633     1.58000
H1529       H  0.45316070  0.70617495  0.94486210    -0.06500
C1530       C  0.49828246  0.64048885  0.00189683     0.92700
O1531       O  0.49729571  0.68475009  0.06159825    -0.82700
C1532       C  0.48308189  0.68968668  0.07675228     0.92700
O1533       O  0.05027424  0.74732051  0.92730178    -0.82700
Mg1534     Mg  0.47948649  0.79554987  0.97091268     1.58200
O1535       O  0.49959132  0.65537030  0.01879646    -0.81000
O1536       O  0.99503015  0.84833065  0.01630825    -0.82700
O1537       O  0.14222805  0.52329870  0.67374877    -0.88300
C1538       C  0.19888402  0.60065356  0.70960749     0.87700
Mg1539     Mg  0.15642187  0.51553637  0.64292832     1.58100
O1540       O  0.13753350  0.60357476  0.68367402    -0.88100
O1541       O  0.10501809  0.52970881  0.68728945    -0.75400
C1542       C  0.21575024  0.64961747  0.59219587     0.92800
O1543       O  0.21821509  0.55846890  0.67728486    -0.75200
O1544       O  0.21973383  0.62655869  0.59438098    -0.82700
Mg1545     Mg  0.17602201  0.53487486  0.69951391     1.58000
C1546       C  0.15815203  0.68828742  0.65217780     0.92700
O1547       O  0.14003322  0.50961666  0.72561553    -0.81000
H1548       H  0.09206889  0.58728750  0.67890679    -0.06300
C1549       C  0.22229407  0.64963392  0.65573645     0.87600
O1550       O  0.13199716  0.53797986  0.62535331    -0.75500
O1551       O  0.17483241  0.57718754  0.70374793    -0.88200
O1552       O  0.15870500  0.67787177  0.67079989    -0.81100
C1553       C  0.14969991  0.63621583  0.73514395     0.92800
C1554       C  0.12558593  0.51581525  0.73980572     0.92600
Mg1555     Mg  0.16215932  0.63055456  0.63057297     1.58000
O1556       O  0.20029033  0.65583444  0.60569190    -0.81000
O1557       O  0.11908074  0.60572307  0.65244936    -0.75200
O1558       O  0.14941252  0.61061406  0.73450803    -0.81100
O1559       O  0.17666727  0.98968060  0.69387521    -0.82800
O1560       O  0.19362787  0.55462732  0.59592526    -0.81100
C1561       C  0.11527801  0.59852610  0.67216290     0.87100
O1562       O  0.16337566  0.58813346  0.62587790    -0.88200
O1563       O  0.19450415  0.64213827  0.65699627    -0.88300
O1564       O  0.23133006  0.63398118  0.64480115    -0.75400
Mg1565     Mg  0.12964487  0.57173458  0.70973427     1.58000
O1566       O  0.15846631  0.65444353  0.71915209    -0.82800
H1567       H  0.09725921  0.49414683  0.66742801    -0.06500
O1568       O  0.19870309  0.55990449  0.64643053    -0.88000
H1569       H  0.24404166  0.57473921  0.65018056    -0.06300
H1570       H  0.12224045  0.56851708  0.61091817    -0.06500
C1571       C  0.22119465  0.56446255  0.65744369     0.87100
C1572       C  0.11424653  0.51457912  0.67596283     0.87600
C1573       C  0.13876808  0.56522861  0.62015165     0.87700
H1574       H  0.23926481  0.66946039  0.66479364    -0.06500
O1575       O  0.20401599  0.62766984  0.70509868    -0.75500
Mg1576     Mg  0.20882573  0.59275718  0.62137066     1.58000
H1577       H  0.21605187  0.59816637  0.71866397    -0.06500
C1578       C  0.17894320  0.97718941  0.67663172     0.92700
O1579       O  0.17226435  0.50748604  0.60998040    -0.82700
C1580       C  0.18422144  0.52583217  0.59411738     0.92700
O1581       O  0.12112405  0.53862561  0.73750566    -0.82700
Mg1582     Mg  0.17809659  0.64883962  0.68728159     1.58200
O1583       O  0.17380648  0.48529697  0.65914318    -0.81000
O1584       O  0.16095402  0.67574456  0.63510476    -0.82700
C1585       C  0.11564520  0.67809316  0.85193961     0.02300
C1586       C  0.08739562  0.67855300  0.85291947     0.02300
C1587       C  0.06861829  0.67064428  0.83426733    -0.18300
C1588       C  0.07763695  0.66230142  0.81485825     0.02300
C1589       C  0.10752201  0.66491338  0.81390208     0.02300
C1590       C  0.12535018  0.67143451  0.83255475    -0.18300
H1591       H  0.14691830  0.67085434  0.83208976     0.04300
H1592       H  0.04697580  0.67099432  0.83492067     0.04300
C1593       C  0.08260636  0.93482095  0.85729888     0.02300
C1594       C  0.05351256  0.90698896  0.85501974     0.02300
C1595       C  0.03786305  0.90048323  0.83529022    -0.18300
C1596       C  0.05143416  0.91956970  0.81740579     0.02300
C1597       C  0.08083726  0.94679620  0.81939057     0.02300
C1598       C  0.09610786  0.95401371  0.83928595    -0.18300
H1599       H  0.11900219  0.97435332  0.84071664     0.04300
H1600       H  0.01515659  0.87993249  0.83376856     0.04300
O1601       O  0.47626770  0.61749990  0.67385397    -0.88300
C1602       C  0.40359171  0.59903568  0.71500953     0.87700
Mg1603     Mg  0.48184303  0.63868550  0.64261040     1.58100
O1604       O  0.39811012  0.53326213  0.68921269    -0.88100
O1605       O  0.47241232  0.57597259  0.68854709    -0.75400
C1606       C  0.34323146  0.55519488  0.59741477     0.92800
O1607       O  0.43977013  0.65582248  0.67891746    -0.75200
O1608       O  0.36708093  0.58222202  0.59659699    -0.82700
Mg1609     Mg  0.46698694  0.64044269  0.70052856     1.58000
C1610       C  0.31468147  0.96824108  0.65739240     0.92700
O1611       O  0.49514487  0.63201246  0.72575825    -0.81000
H1612       H  0.41482648  0.50479777  0.68346380    -0.06300
C1613       C  0.35013009  0.57072035  0.66055273     0.87600
O1614       O  0.45952924  0.59136673  0.62544385    -0.75500
O1615       O  0.42600526  0.59737686  0.70799852    -0.88200
O1616       O  0.32604654  0.97978686  0.67575491    -0.81100
C1617       C  0.36741132  0.51548438  0.74177825     0.92800
C1618       C  0.49230248  0.61292244  0.74020024     0.92600
Mg1619     Mg  0.36794157  0.52862178  0.63651458     1.58000
O1620       O  0.33794550  0.53798724  0.61360925    -0.81000
O1621       O  0.39529475  0.51287547  0.65756007    -0.75200
O1622       O  0.39612357  0.53616461  0.74029497    -0.81100
O1623       O  0.01332542  0.68625644  0.69184254    -0.82800
O1624       O  0.44016103  0.63028941  0.59594501    -0.81100
C1625       C  0.40290289  0.51625146  0.67722603     0.87100
O1626       O  0.40941004  0.57147221  0.62921884    -0.88200
O1627       O  0.35941613  0.55204878  0.66283567    -0.88300
O1628       O  0.36321242  0.59326650  0.64757329    -0.75400
Mg1629     Mg  0.43293240  0.55840873  0.71351996     1.58000
O1630       O  0.34861051  0.50874728  0.72613722    -0.82800
H1631       H  0.50493561  0.60158166  0.66617880    -0.06500
O1632       O  0.43724530  0.63591100  0.64715764    -0.88000
H1633       H  0.42000304  0.66387152  0.65313172    -0.06300
H1634       H  0.42772138  0.54972977  0.61288025    -0.06500
C1635       C  0.43212620  0.65255920  0.65926384     0.87100
C1636       C  0.48557062  0.59882543  0.67585786     0.87600
C1637       C  0.43179807  0.56991844  0.62202311     0.87700
H1638       H  0.33077343  0.56816199  0.67015148    -0.06500
O1639       O  0.37587442  0.57815926  0.71093228    -0.75500
Mg1640     Mg  0.40298216  0.61006306  0.62275635     1.58000
H1641       H  0.40767077  0.61906581  0.72435352    -0.06500
C1642       C  0.02418811  0.69988870  0.67418992     0.92700
O1643       O  0.48648140  0.66233149  0.60983002    -0.82700
C1644       C  0.46735796  0.65374164  0.59413339     0.92700
O1645       O  0.46977972  0.58503021  0.73967489    -0.82700
Mg1646     Mg  0.35352119  0.53105260  0.69370734     1.58200
O1647       O  0.51278624  0.68654861  0.65783446    -0.81000
O1648       O  0.32682972  0.98240046  0.64011651    -0.82700
O1649       O  0.35944101  0.80084648  0.66337054    -0.88300
C1650       C  0.42342036  0.85581894  0.61803398     0.87700
Mg1651     Mg  0.35513269  0.81829420  0.69411850     1.58100
O1652       O  0.44039261  0.80406587  0.64525083    -0.88100
O1653       O  0.36597100  0.76460588  0.64870485    -0.75400
C1654       C  0.49685971  0.89499141  0.73270813     0.92800
O1655       O  0.38461409  0.87366111  0.65424276    -0.75200
O1656       O  0.47151886  0.89545630  0.73207484    -0.82700
Mg1657     Mg  0.35979405  0.82747375  0.63596744     1.58000
C1658       C  0.03298809  0.84202793  0.66530080     0.92700
O1659       O  0.33157575  0.78518638  0.61401441    -0.81000
H1660       H  0.42952817  0.76126021  0.65388329    -0.06300
C1661       C  0.48349008  0.89343218  0.66817021     0.87600
O1662       O  0.38492809  0.80121159  0.71070369    -0.75500
O1663       O  0.40367937  0.83155568  0.62653014    -0.88200
O1664       O  0.51730954  0.83572212  0.64987351    -0.81100
C1665       C  0.46498093  0.80976342  0.59185881     0.92800
C1666       C  0.33956120  0.77564597  0.59752111     0.92600
Mg1667     Mg  0.47682248  0.84031895  0.69542311     1.58000
O1668       O  0.50478309  0.88258315  0.71781412    -0.81000
O1669       O  0.45100137  0.79386217  0.67712180    -0.75200
O1670       O  0.43707038  0.80423963  0.59356143    -0.81100
O1671       O  0.31379330  0.82287028  0.64633563    -0.82800
O1672       O  0.39891409  0.86773777  0.73705749    -0.81100
C1673       C  0.44001640  0.78541539  0.65834843     0.87100
O1674       O  0.43315753  0.83679188  0.70507191    -0.88200
O1675       O  0.47767342  0.86630788  0.66751172    -0.88300
O1676       O  0.46933669  0.90206066  0.68103247    -0.75400
Mg1677     Mg  0.40290484  0.78836341  0.62217174     1.58000
O1678       O  0.48506052  0.82526142  0.60617331    -0.82800
H1679       H  0.33502508  0.75666811  0.67269178    -0.06500
O1680       O  0.39513509  0.86264214  0.68580473    -0.88000
H1681       H  0.40463695  0.90536495  0.67814792    -0.06300
H1682       H  0.42189686  0.79951681  0.72296478    -0.06500
C1683       C  0.39491929  0.88147959  0.67317903     0.87100
C1684       C  0.35252675  0.77342583  0.66204570     0.87600
C1685       C  0.41389051  0.81227259  0.71350429     0.87700
H1686       H  0.50056872  0.91008086  0.65725255    -0.06500
O1687       O  0.45231727  0.86560772  0.62026063    -0.75500
Mg1688     Mg  0.43298326  0.87996146  0.70810791     1.58000
H1689       H  0.41596994  0.86919829  0.60875754    -0.06500
C1690       C  0.30380884  0.82581866  0.66451123     0.92700
O1691       O  0.35054368  0.83837218  0.72531114    -0.82700
C1692       C  0.36961135  0.85645824  0.73930590     0.92700
O1693       O  0.36490385  0.77499386  0.59727103    -0.82700
Mg1694     Mg  0.48141334  0.84746053  0.63699679     1.58200
O1695       O  0.31843588  0.82890485  0.68181392    -0.81000
O1696       O  0.02327718  0.84514523  0.68358675    -0.82700
C1697       C  0.28734144  0.88005447  0.84074453     0.02300
C1698       C  0.29520054  0.91094200  0.84570279     0.02300
C1699       C  0.31206097  0.93371716  0.83002609    -0.18300
C1700       C  0.32201789  0.92652737  0.81072896     0.02300
C1701       C  0.31566193  0.89590320  0.80697467     0.02300
C1702       C  0.29806534  0.87302869  0.82196370    -0.18300
H1703       H  0.29377169  0.84966488  0.81939432     0.04300
H1704       H  0.31844748  0.95760795  0.83290539     0.04300
C1705       C  0.01519506  0.74642501  0.48069075     0.02300
C1706       C  0.01614183  0.77533611  0.48236883     0.02300
C1707       C  0.01028082  0.78459830  0.50213896    -0.18300
C1708       C  0.50433528  0.76241653  0.52025622     0.02300
C1709       C  0.50339415  0.73358485  0.51846813     0.02300
C1710       C  0.01162069  0.72948001  0.49961759    -0.18300
H1711       H  0.01250473  0.70824486  0.49876000     0.04300
H1712       H  0.00844254  0.80537185  0.50301753     0.04300
C1713       C  0.24048897  0.73079036  0.47810666     0.02300
C1714       C  0.26205205  0.76292559  0.48018936     0.02300
C1715       C  0.27805608  0.77330310  0.50005740    -0.18300
C1716       C  0.27283946  0.75261450  0.51694202     0.02300
C1717       C  0.24978141  0.72117753  0.51456153     0.02300
C1718       C  0.23440461  0.71048744  0.49505697    -0.18300
H1719       H  0.21682915  0.68627720  0.49326401     0.04300
H1720       H  0.29432811  0.79762892  0.50274824     0.04300
C1721       C  0.23832187  0.98400418  0.48013721     0.02300
C1722       C  0.27023582  0.99297411  0.48268912     0.02300
C1723       C  0.28557910  0.00724662  0.50176891    -0.18300
C1724       C  0.26700823  0.50921041  0.52099987     0.02300
C1725       C  0.23442845  0.49695665  0.51959073     0.02300
C1726       C  0.22287174  0.98965869  0.49719668    -0.18300
H1727       H  0.19869722  0.98343168  0.49538327     0.04300
H1728       H  0.30991345  0.01399235  0.50365478     0.04300
O1729       O  0.03663919  0.98402253  0.99088206    -0.88300
C1730       C  0.46591955  0.94666307  0.03361511     0.87700
Mg1731     Mg  0.07329935  0.53320393  0.99474681     1.58100
O1732       O  0.44612066  0.96175103  0.98244753    -0.88100
O1733       O  0.50324728  0.95324131  0.96753341    -0.75400
C1734       C  0.99837797  0.61200981  0.00235665     0.92800
O1735       O  0.03704103  0.99854251  0.04152516    -0.75200
O1736       O  0.02161603  0.61185558  0.01088867    -0.82700
Mg1737     Mg  0.02591486  0.95665208  0.01968982     1.58000
C1738       C  0.38906495  0.00424529  0.98170150     0.92700
O1739       O  0.01632586  0.91169552  0.00416987    -0.81000
H1740       H  0.44141302  0.95453455  0.95076585    -0.06300
C1741       C  0.45904669  0.52431977  0.02854320     0.87600
O1742       O  0.05060760  0.54885679  0.96918772    -0.75500
O1743       O  0.47992112  0.94664608  0.01716148    -0.88200
O1744       O  0.38878722  0.97929087  0.98670689    -0.81100
C1745       C  0.38392205  0.89216544  0.00283035     0.92800
C1746       C  0.99360491  0.88741400  0.99639846     0.92600
Mg1747     Mg  0.46583717  0.54127356  0.98099169     1.58000
O1748       O  0.47556905  0.58708604  0.99553337    -0.81000
O1749       O  0.45484127  0.49951341  0.95948422    -0.75200
O1750       O  0.40932861  0.89200931  0.00030925    -0.81100
O1751       O  0.07633586  0.96711294  0.02035604    -0.82800
O1752       O  0.08294473  0.60769399  0.00466904    -0.81100
C1753       C  0.44651992  0.97055187  0.96395608     0.87100
O1754       O  0.01362284  0.55345014  0.98482610    -0.88200
O1755       O  0.45404158  0.51402708  0.01006268    -0.88300
O1756       O  0.98724994  0.54619965  0.03374027    -0.75400
Mg1757     Mg  0.45776152  0.92567964  0.98652712     1.58000
O1758       O  0.38285545  0.91699003  0.00481149    -0.82800
H1759       H  0.04914350  0.98241071  0.96057711    -0.06500
O1760       O  0.04552260  0.53742604  0.02016937    -0.88000
H1761       H  0.05053024  0.54388333  0.05192067    -0.06300
H1762       H  0.02438759  0.56366548  0.95388692    -0.06500
C1763       C  0.04547893  0.52826106  0.03848561     0.87100
C1764       C  0.03077318  0.97349187  0.97245514     0.87600
C1765       C  0.02932314  0.55593586  0.96876423     0.87700
H1766       H  0.44007117  0.51547744  0.03995576    -0.06500
O1767       O  0.44488412  0.95416347  0.03331309    -0.75500
Mg1768     Mg  0.03360888  0.57364050  0.01612473     1.58000
H1769       H  0.47217082  0.94075743  0.04874198    -0.06500
C1770       C  0.10157325  0.99271180  0.01860804     0.92700
O1771       O  0.10978869  0.58300828  0.00029501    -0.82700
C1772       C  0.10847139  0.60756854  0.00318143     0.92700
O1773       O  0.46961152  0.88755895  0.99088152    -0.82700
Mg1774     Mg  0.41973243  0.96736476  0.00792669     1.58200
O1775       O  0.10396098  0.51983178  0.01530285    -0.81000
O1776       O  0.41559715  0.53025989  0.97874199    -0.82700
O1777       O  0.29280873  0.68151929  0.32045211    -0.88300
C1778       C  0.36391424  0.72149053  0.36469807     0.87700
Mg1779     Mg  0.25765802  0.63267717  0.32177140     1.58100
O1780       O  0.38538248  0.70667213  0.31346324    -0.88100
O1781       O  0.32755943  0.71500724  0.29859257    -0.75400
C1782       C  0.33397426  0.55712806  0.33379435     0.92800
O1783       O  0.28858266  0.66449441  0.37086541    -0.75200
O1784       O  0.30978561  0.55637532  0.34142550    -0.82700
Mg1785     Mg  0.30117803  0.70729601  0.35045556     1.58000
C1786       C  0.44398852  0.66664526  0.31402324     0.92700
O1787       O  0.31357562  0.75544028  0.33751501    -0.81000
H1788       H  0.39074680  0.71380065  0.28182981    -0.06300
C1789       C  0.36936834  0.64246637  0.35946323     0.87600
O1790       O  0.28339033  0.61913046  0.29721121    -0.75500
O1791       O  0.35005459  0.72016036  0.34798233    -0.88200
O1792       O  0.44360760  0.69085077  0.32010104    -0.81100
C1793       C  0.44773987  0.77615792  0.33376536     0.92800
C1794       C  0.33769316  0.78025375  0.33138102     0.92600
Mg1795     Mg  0.36743257  0.62777049  0.31148058     1.58000
O1796       O  0.35650044  0.58140336  0.32568738    -0.81000
O1797       O  0.37862794  0.67019566  0.29097578    -0.75200
O1798       O  0.42228089  0.77572439  0.33009431    -0.81100
O1799       O  0.24932115  0.69359602  0.35070851    -0.82800
O1800       O  0.24821492  0.55893605  0.33275499    -0.81100
C1801       C  0.38546285  0.69784617  0.29495472     0.87100
O1802       O  0.31886523  0.61450714  0.31469766    -0.88200
O1803       O  0.37619094  0.65359352  0.34131359    -0.88300
O1804       O  0.34175981  0.62214511  0.36424713    -0.75400
Mg1805     Mg  0.37307043  0.74218218  0.31775835     1.58000
O1806       O  0.44887142  0.75177241  0.33750083    -0.82800
H1807       H  0.28256609  0.68587609  0.29015333    -0.06500
O1808       O  0.28321247  0.62843620  0.34853771    -0.88000
H1809       H  0.27569870  0.62069971  0.38000026    -0.06300
H1810       H  0.31156897  0.60534436  0.28332673    -0.06500
C1811       C  0.28191420  0.63690464  0.36693010     0.87100
C1812       C  0.29997190  0.69380407  0.30266066     0.87600
C1813       C  0.30481614  0.61232128  0.29790850     0.87700
H1814       H  0.38708232  0.65112604  0.37177770    -0.06500
O1815       O  0.38544557  0.71476834  0.36497885    -0.75500
Mg1816     Mg  0.29662145  0.59366992  0.34537224     1.58000
H1817       H  0.35708127  0.72783950  0.37951690    -0.06500
C1818       C  0.22445819  0.66809778  0.34658043     0.92700
O1819       O  0.22032363  0.58140510  0.32473729    -0.82700
C1820       C  0.22235897  0.55747596  0.32877809     0.92700
O1821       O  0.36167556  0.78047405  0.32384326    -0.82700
Mg1822     Mg  0.41113313  0.70158969  0.33992684     1.58200
O1823       O  0.22486199  0.64374886  0.34087042    -0.81000
O1824       O  0.41907400  0.64122696  0.31002530    -0.82700
O1825       O  0.20363415  0.81746132  0.64604585    -0.88300
C1826       C  0.14197651  0.77549636  0.69536829     0.87700
Mg1827     Mg  0.24194318  0.86499775  0.64766369     1.58100
O1828       O  0.11333871  0.79675813  0.65052410    -0.88100
O1829       O  0.16461178  0.78578074  0.62588779    -0.75400
C1830       C  0.17927830  0.94798858  0.67760502     0.92800
O1831       O  0.21624391  0.82969591  0.69665378    -0.75200
O1832       O  0.20495108  0.94826026  0.67945777    -0.82700
Mg1833     Mg  0.19912435  0.78852871  0.67321264     1.58000
C1834       C  0.06240925  0.84188028  0.66411887     0.92700
O1835       O  0.18361994  0.74271800  0.65451244    -0.81000
H1836       H  0.10284040  0.79366339  0.61934149    -0.06300
C1837       C  0.14424391  0.86067237  0.70032129     0.87600
O1838       O  0.21490812  0.88290682  0.62832260    -0.75500
O1839       O  0.15164029  0.77769739  0.67683936    -0.88200
O1840       O  0.06208981  0.81684612  0.66826793    -0.81100
C1841       C  0.05373846  0.72876963  0.67391450     0.92800
C1842       C  0.15784821  0.71781414  0.65110528     0.92600
Mg1843     Mg  0.13774800  0.87805134  0.65540160     1.58000
O1844       O  0.15342704  0.92308616  0.67460413    -0.81000
O1845       O  0.12005158  0.83676663  0.63202019    -0.75200
O1846       O  0.07680729  0.72794705  0.66559299    -0.81100
O1847       O  0.24928221  0.79984604  0.66871686    -0.82800
O1848       O  0.26100984  0.93989135  0.66383663    -0.81100
C1849       C  0.11138367  0.80818516  0.63348613     0.87100
O1850       O  0.18546464  0.88892404  0.65164331    -0.88200
O1851       O  0.13372509  0.84953742  0.68251790    -0.88300
O1852       O  0.17258595  0.88124360  0.70269428    -0.75400
Mg1853     Mg  0.12282753  0.75884673  0.64862595     1.58000
O1854       O  0.05514692  0.75361810  0.68031115    -0.82800
H1855       H  0.20796187  0.81485569  0.61430163    -0.06500
O1856       O  0.22344204  0.86998604  0.67831329    -0.88000
H1857       H  0.23296652  0.87255330  0.70963856    -0.06300
H1858       H  0.18688675  0.90032496  0.62079972    -0.06500
C1859       C  0.22487555  0.85827866  0.69535709     0.87100
C1860       C  0.19296889  0.80645547  0.62822279     0.87600
C1861       C  0.19548809  0.89145577  0.63318650     0.87700
H1862       H  0.12914879  0.85241757  0.71419791    -0.06500
O1863       O  0.12314518  0.78469336  0.70043328    -0.75500
Mg1864     Mg  0.21430728  0.90788550  0.68001460     1.58000
H1865       H  0.15059224  0.76654597  0.70768753    -0.06500
C1866       C  0.27425418  0.82536254  0.66547276     0.92700
O1867       O  0.28326149  0.91429683  0.65013962    -0.82700
C1868       C  0.28470455  0.93918383  0.65662784     0.92700
O1869       O  0.13228243  0.71783016  0.64892945    -0.82700
Mg1870     Mg  0.09569822  0.80245071  0.68155926     1.58200
O1871       O  0.27452036  0.85045617  0.66183617    -0.81000
O1872       O  0.08747096  0.86702094  0.66014656    -0.82700
C1873       C  0.32995958  0.86866901  0.75296051    -0.05800
C1874       C  0.35686121  0.86677208  0.75734528     0.00200
C1875       C  0.37061573  0.87578008  0.77798770    -0.08400
C1876       C  0.35619528  0.88519391  0.79350597    -0.05800
C1877       C  0.32958106  0.88731068  0.78892094     0.00100
C1878       C  0.31594450  0.87858790  0.76831285    -0.08300
C1879       C  0.28655648  0.87860527  0.76150850     0.62100
H1880       H  0.31960442  0.86243788  0.73711549     0.12800
H1881       H  0.36575185  0.89119816  0.80954627     0.12800
C1882       C  0.40010777  0.87539835  0.78386021     0.62300
F1883       F  0.29365997  0.89935351  0.74488291    -0.22900
F1884       F  0.27290941  0.88654056  0.77782098    -0.20200
F1885       F  0.26489119  0.84932937  0.75429482    -0.19900
F1886       F  0.40710599  0.88144712  0.80545919    -0.19900
F1887       F  0.42497548  0.89788070  0.77236940    -0.20300
F1888       F  0.39660323  0.84664403  0.77929919    -0.22900
C1889       C  0.33659278  0.77128368  0.55778600    -0.05800
C1890       C  0.32090256  0.76840125  0.57729609     0.00200
C1891       C  0.28961264  0.76220818  0.57652343    -0.08400
C1892       C  0.27629259  0.76128776  0.55640545    -0.05800
C1893       C  0.29171601  0.76313841  0.53704538     0.00100
C1894       C  0.32240013  0.76809465  0.53770846    -0.08300
C1895       C  0.34015050  0.76990576  0.51731199     0.62100
H1896       H  0.36055708  0.77668317  0.55826762     0.12800
H1897       H  0.25274174  0.75716914  0.55558106     0.12800
C1898       C  0.26940989  0.75470251  0.59646401     0.62300
F1899       F  0.36832635  0.77157800  0.52166437    -0.22900
F1900       F  0.34619261  0.79605335  0.50595915    -0.20200
F1901       F  0.32288177  0.74396089  0.50466276    -0.19900
F1902       F  0.27803738  0.78135654  0.60823630    -0.19900
F1903       F  0.27245868  0.73348076  0.60890159    -0.20300
F1904       F  0.23817872  0.74177024  0.59131951    -0.22900
C1905       C  0.50603380  0.81220412  0.56749540    -0.05800
C1906       C  0.47437270  0.79703213  0.57330699     0.00200
C1907       C  0.45349168  0.76860302  0.56280827    -0.08400
C1908       C  0.46499485  0.75750010  0.54641167    -0.05800
C1909       C  0.49639118  0.77311161  0.54035566     0.00100
C1910       C  0.01766263  0.79994843  0.55442625    -0.08300
C1911       C  0.05142554  0.80780276  0.55470746     0.62100
H1912       H  0.02375368  0.82998549  0.58102282     0.12800
H1913       H  0.44914943  0.73689128  0.53748064     0.12800
C1914       C  0.41922071  0.74958236  0.56869774     0.62300
F1915       F  0.06946708  0.83275271  0.56803365    -0.22900
F1916       F  0.06424250  0.81509243  0.53440414    -0.20200
F1917       F  0.05280989  0.78259262  0.56218013    -0.19900
F1918       F  0.40441991  0.76595381  0.56371021    -0.19900
F1919       F  0.41608741  0.74286291  0.59037101    -0.20300
F1920       F  0.40425238  0.72173325  0.55759826    -0.22900
C1921       C  0.37858688  0.98742495  0.77145033    -0.05800
C1922       C  0.35786676  0.99234342  0.75889332     0.00200
C1923       C  0.32589599  0.97746983  0.76495008    -0.08400
C1924       C  0.31580594  0.95689110  0.78235621    -0.05800
C1925       C  0.33620134  0.95071357  0.79396685     0.00100
C1926       C  0.36843679  0.96730955  0.78917595    -0.08300
C1927       C  0.39313224  0.96530250  0.80225943     0.62100
H1928       H  0.40308458  0.99911422  0.76722942     0.12800
H1929       H  0.29142496  0.94473621  0.78683752     0.12800
C1930       C  0.30310162  0.49354356  0.76096704     0.62300
F1931       F  0.40739323  0.95303551  0.78965702    -0.22900
F1932       F  0.38141121  0.94739766  0.82044950    -0.20200
F1933       F  0.41538281  0.99474605  0.80877097    -0.19900
F1934       F  0.29594277  0.96993670  0.73337663    -0.19900
F1935       F  0.31850554  0.52528664  0.75800016    -0.20300
F1936       F  0.27911549  0.48626551  0.77539397    -0.22900
C1937       C  0.28978299  0.50153134  0.55342386    -0.05800
C1938       C  0.28450492  0.52186887  0.54124364     0.00200
C1939       C  0.29829289  0.55337423  0.54758859    -0.08400
C1940       C  0.31664129  0.56316526  0.56631013    -0.05800
C1941       C  0.32159168  0.54264202  0.57878961     0.00100
C1942       C  0.30766113  0.51099854  0.57224983    -0.08300
C1943       C  0.31174778  0.48700983  0.58458607     0.62100
H1944       H  0.27976635  0.47785082  0.54781891     0.12800
H1945       H  0.32749858  0.58729740  0.57111575     0.12800
C1946       C  0.29530582  0.57784298  0.53518580     0.62300
F1947       F  0.29949184  0.45905911  0.57366767    -0.22900
F1948       F  0.29636463  0.48131852  0.60401866    -0.20200
F1949       F  0.34302893  0.49745947  0.58797148    -0.19900
F1950       F  0.28962372  0.09541105  0.54313633    -0.19900
F1951       F  0.27795754  0.56668204  0.51664306    -0.20300
F1952       F  0.32469916  0.60137792  0.52956999    -0.22900
C1953       C  0.46507600  0.68858340  0.53936898    -0.05800
C1954       C  0.49597483  0.71242439  0.53722421     0.00200
C1955       C  0.01886839  0.71185878  0.54973104    -0.08400
C1956       C  0.50770095  0.69579545  0.57093491    -0.05800
C1957       C  0.47644242  0.67215948  0.57355128     0.00100
C1958       C  0.45461032  0.66850440  0.55717258    -0.08300
C1959       C  0.42007720  0.64447828  0.55834599     0.62100
H1960       H  0.44884969  0.68640094  0.52696790     0.12800
H1961       H  0.02364694  0.68609623  0.57564311     0.12800
C1962       C  0.05333080  0.72634599  0.54458632     0.62300
F1963       F  0.40361749  0.64607072  0.54097682    -0.22900
F1964       F  0.40712565  0.64930103  0.57663636    -0.20200
F1965       F  0.41619892  0.61500661  0.55847251    -0.19900
F1966       F  0.05957075  0.70335591  0.53829579    -0.19900
F1967       F  0.07056594  0.74054842  0.56282432    -0.20300
F1968       F  0.06319892  0.74826213  0.52855592    -0.22900
C1969       C  0.02669793  0.93146001  0.78741578    -0.05800
C1970       C  0.03526490  0.91100712  0.79631510     0.00200
C1971       C  0.03304589  0.88621857  0.78370645    -0.08400
C1972       C  0.02221256  0.88293284  0.76249282    -0.05800
C1973       C  0.01358020  0.90340360  0.75360922     0.00100
C1974       C  0.01669935  0.92867215  0.76606829    -0.08300
C1975       C  0.51382530  0.95547879  0.75594139     0.62100
H1976       H  0.02870712  0.95029896  0.79725994     0.12800
H1977       H  0.01909146  0.86337579  0.75292540     0.12800
C1978       C  0.04180851  0.86317566  0.79249759     0.62300
F1979       F  0.52437171  0.98066410  0.76968758    -0.22900
F1980       F  0.48279437  0.94500626  0.75172985    -0.20200
F1981       F  0.53072182  0.96562620  0.73708146    -0.19900
F1982       F  0.02156479  0.84608869  0.80875185    -0.19900
F1983       F  0.07184837  0.87849805  0.80043308    -0.20300
F1984       F  0.04025493  0.84260041  0.77686276    -0.22900
C1985       C  0.06619166  0.66660482  0.77623976    -0.05800
C1986       C  0.05605094  0.65041645  0.79569466     0.00200
C1987       C  0.02821974  0.62112737  0.79556160    -0.08400
C1988       C  0.50486692  0.60724537  0.77813049    -0.05800
C1989       C  0.02083613  0.62630918  0.75683507     0.00100
C1990       C  0.04986089  0.65479521  0.75672844    -0.08300
C1991       C  0.06442588  0.67274078  0.73623860     0.62100
H1992       H  0.08775548  0.68856097  0.77637599     0.12800
H1993       H  0.48337953  0.58521743  0.77811709     0.12800
C1994       C  0.51159441  0.59755460  0.81704531     0.62300
F1995       F  0.09551253  0.69474253  0.73908402    -0.22900
F1996       F  0.04895513  0.68795627  0.72985678    -0.20200
F1997       F  0.06298443  0.65280607  0.72014589    -0.19900
F1998       F  0.00839124  0.61574284  0.83095364    -0.19900
F1999       F  0.04011693  0.59656520  0.82357550    -0.20300
F2000       F  0.48728869  0.56811774  0.81246794    -0.22900
C2001       C  0.10392642  0.95349611  0.78307408    -0.05800
C2002       C  0.09590006  0.96661450  0.80015402     0.00200
C2003       C  0.09722605  0.99533647  0.79710135    -0.08400
C2004       C  0.10534634  0.00919987  0.77669121    -0.05800
C2005       C  0.11206210  0.99548455  0.75912264     0.00100
C2006       C  0.11138873  0.96686987  0.76249903    -0.08300
C2007       C  0.11767213  0.94969251  0.74468702     0.62100
H2008       H  0.10317858  0.93178432  0.78589806     0.12800
H2009       H  0.10706945  0.03143866  0.77451474     0.12800
C2010       C  0.09024495  0.01143332  0.81527904     0.62300
F2011       F  0.11138011  0.92055723  0.75106199    -0.22900
F2012       F  0.15090094  0.46727544  0.73853022    -0.20200
F2013       F  0.09894852  0.94579777  0.72719138    -0.19900
F2014       F  0.11249817  0.01985868  0.83111490    -0.19900
F2015       F  0.06117573  0.99193696  0.82389615    -0.20300
F2016       F  0.09063201  0.03799368  0.80843341    -0.22900
C2017       C  0.15533375  0.67393987  0.76349549    -0.05800
C2018       C  0.13853916  0.64394723  0.75493688     0.00200
C2019       C  0.11077329  0.62161582  0.76523591    -0.08400
C2020       C  0.10298969  0.62887861  0.78514773    -0.05800
C2021       C  0.11970600  0.65864702  0.79385760     0.00100
C2022       C  0.14594425  0.68196940  0.78269297    -0.08300
C2023       C  0.16374507  0.71515534  0.79077127     0.62100
H2024       H  0.17597978  0.69094107  0.75511250     0.12800
H2025       H  0.08295262  0.61146614  0.79380757     0.12800
C2026       C  0.08832870  0.59068315  0.75498458     0.62300
F2027       F  0.18476456  0.73482252  0.77565964    -0.22900
F2028       F  0.18021747  0.71673444  0.80897887    -0.20200
F2029       F  0.14332966  0.72569040  0.79547028    -0.19900
F2030       F  0.09976680  0.57076219  0.75716439    -0.19900
F2031       F  0.08439799  0.59447109  0.73346636    -0.20300
F2032       F  0.05923856  0.57720182  0.76458814    -0.22900
C2033       C  0.19564749  0.48918813  0.57411161    -0.05800
C2034       C  0.19041203  0.51442857  0.57348395     0.00200
C2035       C  0.19474554  0.53012181  0.55367202    -0.08400
C2036       C  0.20857794  0.52309503  0.53641830    -0.05800
C2037       C  0.21633468  0.49972508  0.53774686     0.00100
C2038       C  0.20759210  0.48088023  0.55633222    -0.08300
C2039       C  0.20963919  0.45163365  0.55829949     0.62100
H2040       H  0.19115125  0.47616815  0.58884209     0.12800
H2041       H  0.21417389  0.53651200  0.52180231     0.12800
C2042       C  0.18546796  0.55457806  0.55039681     0.62300
F2043       F  0.22995262  0.45521933  0.57465990    -0.22900
F2044       F  0.21940569  0.44398454  0.53962396    -0.20200
F2045       F  0.18133141  0.93086849  0.55778062    -0.19900
F2046       F  0.20900109  0.58295757  0.55759463    -0.19900
F2047       F  0.15814498  0.54678789  0.56127832    -0.20300
F2048       F  0.18030723  0.55725303  0.52889905    -0.22900
C2049       C  0.20513940  0.67614984  0.56334949    -0.05800
C2050       C  0.22595539  0.66792798  0.57226274     0.00200
C2051       C  0.25435216  0.67622805  0.56159762    -0.08400
C2052       C  0.26025396  0.69154038  0.54179202    -0.05800
C2053       C  0.23949116  0.69999779  0.53312220     0.00100
C2054       C  0.21155135  0.69247708  0.54408584    -0.08300
C2055       C  0.18881517  0.70212942  0.53579054     0.62100
H2056       H  0.18341396  0.66939943  0.57159839     0.12800
H2057       H  0.28179792  0.69828610  0.53330212     0.12800
C2058       C  0.27907713  0.67079122  0.57157816     0.62300
F2059       F  0.16510360  0.69549803  0.55030846    -0.22900
F2060       F  0.17536359  0.68640759  0.51698679    -0.20200
F2061       F  0.20405035  0.73365084  0.53198134    -0.19900
F2062       F  0.26918133  0.63950554  0.57168330    -0.19900
F2063       F  0.28484975  0.68206687  0.59239618    -0.20300
F2064       F  0.30689467  0.68572981  0.56035425    -0.22900
C2065       C  0.04368184  0.85634476  0.86856867    -0.05800
C2066       C  0.04032727  0.88244302  0.87182839     0.00200
C2067       C  0.02380815  0.88341072  0.89011304    -0.08400
C2068       C  0.01382802  0.85959754  0.90536790    -0.05800
C2069       C  0.01853277  0.83401491  0.90285543     0.00100
C2070       C  0.03290418  0.83194093  0.88355128    -0.08300
C2071       C  0.03712416  0.80445225  0.87846224     0.62100
H2072       H  0.05556389  0.85558696  0.85414807     0.12800
H2073       H  0.49538925  0.85642240  0.91689252     0.12800
C2074       C  0.01548787  0.90839276  0.89442377     0.62300
F2075       F  0.04664850  0.80500177  0.85746840    -0.22900
F2076       F  0.00920931  0.77717360  0.88122220    -0.20200
F2077       F  0.05953624  0.80484430  0.89176463    -0.19900
F2078       F  0.98366124  0.89467140  0.89754894    -0.19900
F2079       F  0.02337225  0.92913033  0.87781044    -0.20300
F2080       F  0.53593260  0.93335379  0.89444613    -0.22900
C2081       C  0.04429290  0.67868421  0.90426868    -0.05800
C2082       C  0.06098294  0.71015670  0.91031861     0.00200
C2083       C  0.08838076  0.73023684  0.89868553    -0.08400
C2084       C  0.09561573  0.71907525  0.87989759    -0.05800
C2085       C  0.07792560  0.68798829  0.87322773     0.00100
C2086       C  0.05303452  0.66698113  0.88651054    -0.08300
C2087       C  0.03568983  0.63206785  0.88345847     0.62100
H2088       H  0.02414758  0.66280796  0.91363547     0.12800
H2089       H  0.11542947  0.73472485  0.87025156     0.12800
C2090       C  0.11093900  0.76270686  0.90666210     0.62300
F2091       F  0.53297940  0.61625713  0.90394149    -0.22900
F2092       F  0.04767623  0.62217872  0.86719061    -0.20200
F2093       F  0.00476211  0.62192986  0.87901235    -0.19900
F2094       F  0.11622054  0.76202561  0.92838954    -0.19900
F2095       F  0.09890859  0.78198747  0.90311413    -0.20300
F2096       F  0.13941059  0.77506058  0.89630590    -0.22900
C2097       C  0.24303399  0.84525859  0.90321646    -0.05800
C2098       C  0.27192745  0.83669299  0.91428850     0.00200
C2099       C  0.30322114  0.83864378  0.89696566    -0.08400
C2100       C  0.30426326  0.84756547  0.86828129    -0.05800
C2101       C  0.27533077  0.85697070  0.85744434     0.00100
C2102       C  0.24351201  0.85403443  0.87469647    -0.08300
C2103       C  0.21735576  0.85765797  0.86601009     0.62100
H2104       H  0.22396029  0.84255999  0.91315460     0.12800
H2105       H  0.32372427  0.85072274  0.85841301     0.12800
C2106       C  0.32670562  0.83145792  0.90604463     0.62300
F2107       F  0.18964263  0.83030109  0.86895904    -0.22900
F2108       F  0.22147208  0.86438479  0.84438209    -0.20200
F2109       F  0.21576033  0.88107358  0.87686405    -0.19900
F2110       F  0.31173421  0.80172956  0.91414937    -0.19900
F2111       F  0.34296839  0.85224946  0.92230610    -0.20300
F2112       F  0.34740594  0.83369220  0.89028678    -0.22900
C2113       C  0.18173073  0.71161067  0.89240527    -0.05800
C2114       C  0.16987736  0.68886599  0.90851615     0.00200
C2115       C  0.14073033  0.66139823  0.90506031    -0.08400
C2116       C  0.12413760  0.65892011  0.88616067    -0.05800
C2117       C  0.13495006  0.68303969  0.87121792     0.00100
C2118       C  0.16432872  0.70989667  0.87430129    -0.08300
C2119       C  0.17819407  0.73799412  0.85972306     0.62100
H2120       H  0.20421861  0.73230945  0.89464376     0.12800
H2121       H  0.10205082  0.63824305  0.88304510     0.12800
C2122       C  0.12637140  0.63517836  0.92124479     0.62300
F2123       F  0.18735384  0.76444128  0.87194995    -0.22900
F2124       F  0.15767872  0.73695025  0.84437737    -0.20200
F2125       F  0.20412688  0.74038832  0.84954277    -0.19900
F2126       F  0.11993875  0.64557370  0.94015432    -0.19900
F2127       F  0.14666108  0.62432443  0.92521285    -0.20300
F2128       F  0.09873195  0.61042019  0.91389144    -0.22900
C2129       C  0.11294081  0.92533658  0.88459026    -0.05800
C2130       C  0.10062247  0.94372693  0.87771039     0.00200
C2131       C  0.10806252  0.97121888  0.88935336    -0.08400
C2132       C  0.12897901  0.98005455  0.90666204    -0.05800
C2133       C  0.14214110  0.96222098  0.91310540     0.00100
C2134       C  0.13290304  0.93356323  0.90244060    -0.08300
C2135       C  0.14297212  0.91101090  0.91012636     0.62100
H2136       H  0.10725637  0.90458257  0.87551661     0.12800
H2137       H  0.13508574  0.00128839  0.91531098     0.12800
C2138       C  0.09434190  0.99188703  0.88492732     0.62300
F2139       F  0.12645622  0.88245340  0.90004944    -0.22900
F2140       F  0.13778766  0.90623810  0.93195853    -0.20200
F2141       F  0.17442326  0.42206565  0.90913325    -0.19900
F2142       F  0.07365022  0.98192040  0.86803547    -0.19900
F2143       F  0.11813837  0.02153346  0.88047524    -0.20300
F2144       F  0.07867754  0.99294446  0.90304889    -0.22900
C2145       C  0.27787458  0.94333248  0.86626008    -0.05800
C2146       C  0.28645876  0.92025530  0.86688819     0.00200
C2147       C  0.28538444  0.90645866  0.88743971    -0.08400
C2148       C  0.27550381  0.91616124  0.90560319    -0.05800
C2149       C  0.26775105  0.93922849  0.90462056     0.00100
C2150       C  0.26946186  0.95369651  0.88484117    -0.08300
C2151       C  0.26350524  0.98071827  0.88352363     0.62100
H2152       H  0.27732104  0.95313781  0.85096687     0.12800
H2153       H  0.27364292  0.90549595  0.92105187     0.12800
C2154       C  0.29436843  0.88049273  0.89092037     0.62300
F2155       F  0.26209894  0.48827543  0.86271523    -0.22900
F2156       F  0.27769087  0.50093459  0.89676507    -0.20200
F2157       F  0.23294104  0.97104517  0.88891714    -0.19900
F2158       F  0.32366901  0.89727888  0.88065971    -0.19900
F2159       F  0.26109613  0.82571929  0.88237736    -0.20300
F2160       F  0.30773520  0.88882027  0.91169498    -0.22900
C2161       C  0.45701111  0.81832549  0.09860017    -0.05800
C2162       C  0.43577218  0.78924465  0.08985081     0.00200
C2163       C  0.40751928  0.77029685  0.10094416    -0.08400
C2164       C  0.40240390  0.78053433  0.12092677    -0.05800
C2165       C  0.42375787  0.80951783  0.12989541     0.00100
C2166       C  0.45160158  0.82898390  0.11833096    -0.08300
C2167       C  0.47588310  0.86085601  0.12646822     0.62100
H2168       H  0.47867642  0.83239918  0.09010108     0.12800
H2169       H  0.38116711  0.76599080  0.12965789     0.12800
C2170       C  0.38200701  0.74031752  0.09119001     0.62300
F2171       F  0.99505631  0.88396803  0.10582885    -0.22900
F2172       F  0.49234914  0.85788703  0.14321369    -0.20200
F2173       F  0.95774273  0.88234678  0.12693121    -0.19900
F2174       F  0.39170296  0.71882262  0.08947958    -0.19900
F2175       F  0.37462992  0.74617312  0.07102611    -0.20300
F2176       F  0.35514203  0.72733642  0.10350013    -0.22900
C2177       C  0.31507478  0.78865220  0.11464540    -0.05800
C2178       C  0.32739443  0.80868787  0.09700180     0.00200
C2179       C  0.35958646  0.83185775  0.09703103    -0.08400
C2180       C  0.37770945  0.83414078  0.11491515    -0.05800
C2181       C  0.36536397  0.81376629  0.13217571     0.00100
C2182       C  0.33352276  0.79041591  0.13216611    -0.08300
C2183       C  0.31879520  0.76710809  0.15030019     0.62100
H2184       H  0.29064094  0.77113652  0.11458667     0.12800
H2185       H  0.40195175  0.85209280  0.11568983     0.12800
C2186       C  0.37551976  0.85362270  0.07828971     0.62300
F2187       F  0.29054818  0.74205659  0.14415808    -0.22900
F2188       F  0.31330850  0.78078656  0.16783852    -0.20200
F2189       F  0.33809940  0.75588606  0.15632315    -0.19900
F2190       F  0.36219474  0.87187748  0.07493689    -0.19900
F2191       F  0.37280774  0.83660621  0.05998610    -0.20300
F2192       F  0.40699322  0.87330600  0.08194092    -0.22900
C2193       C  0.29846992  0.95337962  0.44356278    -0.05800
C2194       C  0.32019590  0.97861683  0.43123728     0.00200
C2195       C  0.32776152  0.00907228  0.43753955    -0.08400
C2196       C  0.29306278  0.50919917  0.44818354    -0.05800
C2197       C  0.28833522  0.98716222  0.46608848     0.00100
C2198       C  0.28314296  0.95719083  0.46128596    -0.08300
C2199       C  0.26152313  0.92856665  0.47411534     0.62100
H2200       H  0.29277463  0.93008236  0.43908571     0.12800
H2201       H  0.28611389  0.52657903  0.44853922     0.12800
C2202       C  0.31105088  0.52508205  0.41012232     0.62300
F2203       F  0.27516587  0.91046751  0.47694089    -0.22900
F2204       F  0.23396669  0.91148913  0.46299420    -0.20200
F2205       F  0.25512636  0.93565495  0.49428696    -0.19900
F2206       F  0.29452430  0.50612981  0.39307445    -0.19900
F2207       F  0.34219813  0.54267691  0.40470690    -0.20300
F2208       F  0.29993207  0.54527598  0.41374064    -0.22900
C2209       C  0.25934052  0.80467782  0.42814207    -0.05800
C2210       C  0.29017761  0.82820650  0.42696027     0.00200
C2211       C  0.31137024  0.83131052  0.44309611    -0.08400
C2212       C  0.30097141  0.80968740  0.45986083    -0.05800
C2213       C  0.26966929  0.78568833  0.46173446     0.00100
C2214       C  0.24801087  0.78335596  0.44524309    -0.08300
C2215       C  0.21203725  0.75794852  0.44490059     0.62100
H2216       H  0.24401802  0.80276824  0.41513842     0.12800
H2217       H  0.31793838  0.81099963  0.47126038     0.12800
C2218       C  0.34501923  0.85736321  0.44239579     0.62300
F2219       F  0.19970268  0.77551690  0.43576667    -0.22900
F2220       F  0.20658462  0.76431408  0.46613954    -0.20200
F2221       F  0.19066709  0.70424747  0.43356220    -0.19900
F2222       F  0.34596605  0.88556759  0.44253369    -0.19900
F2223       F  0.35919724  0.85493032  0.42391768    -0.20300
F2224       F  0.36191631  0.85674233  0.45983192    -0.22900
C2225       C  0.36595969  0.87902988  0.22385181    -0.05800
C2226       C  0.35248896  0.85742173  0.24056966     0.00200
C2227       C  0.35354808  0.82930935  0.23942405    -0.08400
C2228       C  0.36944655  0.82513926  0.22219168    -0.05800
C2229       C  0.38415162  0.84758821  0.20634829     0.00100
C2230       C  0.38201712  0.87481225  0.20686796    -0.08300
C2231       C  0.39635484  0.90042072  0.19026414     0.62100
H2232       H  0.36498281  0.90027182  0.22430721     0.12800
H2233       H  0.37017022  0.80389560  0.22068821     0.12800
C2234       C  0.33852211  0.80363946  0.25602990     0.62300
F2235       F  0.41601937  0.92808345  0.20052481    -0.22900
F2236       F  0.37289482  0.90296794  0.18025554    -0.20200
F2237       F  0.41348851  0.89574294  0.17467715    -0.19900
F2238       F  0.30739503  0.79472886  0.25845094    -0.19900
F2239       F  0.35381512  0.81381810  0.27543832    -0.20300
F2240       F  0.33993182  0.77754306  0.25011032    -0.22900
C2241       C  0.05120984  0.84465193  0.44480961    -0.05800
C2242       C  0.02909692  0.83453339  0.42819998     0.00200
C2243       C  0.00169136  0.80480043  0.43001678    -0.08400
C2244       C  0.99852342  0.78623392  0.44791741    -0.05800
C2245       C  0.02148960  0.79606124  0.46379469     0.00100
C2246       C  0.04823121  0.82592813  0.46239346    -0.08300
C2247       C  0.07418766  0.83799067  0.47898147     0.62100
H2248       H  0.07164721  0.86742767  0.44366098     0.12800
H2249       H  0.97805509  0.76358149  0.44967335     0.12800
C2250       C  0.97596602  0.79205329  0.41326387     0.62300
F2251       F  0.09993649  0.86531519  0.47250108    -0.22900
F2252       F  0.08368299  0.81657401  0.48229455    -0.20200
F2253       F  0.06400463  0.84388353  0.49811337    -0.19900
F2254       F  0.98755751  0.78921980  0.39368910    -0.19900
F2255       F  0.96387935  0.81164107  0.41137458    -0.20300
F2256       F  0.45043406  0.76248464  0.41766823    -0.22900
C2257       C  0.17457342  0.93484677  0.43951526    -0.05800
C2258       C  0.18688322  0.95162620  0.42041839     0.00200
C2259       C  0.21801646  0.97682494  0.42065707    -0.08400
C2260       C  0.23391316  0.98633624  0.44041714    -0.05800
C2261       C  0.22111602  0.97015436  0.45961274     0.00100
C2262       C  0.19145260  0.94279828  0.45882316    -0.08300
C2263       C  0.17620693  0.92092476  0.47756853     0.62100
H2264       H  0.15113372  0.91510623  0.43954343     0.12800
H2265       H  0.25627263  0.00739240  0.44105897     0.12800
C2266       C  0.23487698  0.99371370  0.40038352     0.62300
F2267       F  0.16539851  0.89075834  0.47077108    -0.22900
F2268       F  0.15126204  0.92357199  0.48487904    -0.20200
F2269       F  0.19624511  0.92637312  0.49443560    -0.19900
F2270       F  0.22361133  0.01256377  0.39351329    -0.19900
F2271       F  0.23073312  0.97250952  0.38446398    -0.20300
F2272       F  0.26661411  0.01212061  0.40377153    -0.22900
C2273       C  0.45793207  0.88231596  0.21207491    -0.05800
C2274       C  0.44585187  0.85091923  0.20659902     0.00200
C2275       C  0.45226232  0.83210177  0.22016593    -0.08400
C2276       C  0.47126500  0.84568237  0.23832401    -0.05800
C2277       C  0.48358406  0.87713137  0.24377106     0.00100
C2278       C  0.47610005  0.89569052  0.23065239    -0.08300
C2279       C  0.98739478  0.93013137  0.23819226     0.62100
H2280       H  0.45268332  0.89635705  0.20166901     0.12800
H2281       H  0.47709180  0.83167302  0.24836460     0.12800
C2282       C  0.43863085  0.79767031  0.21594779     0.62300
F2283       F  0.97436724  0.94321742  0.22538446    -0.22900
F2284       F  0.01928062  0.94933713  0.23763847    -0.20200
F2285       F  0.97677825  0.92893007  0.25892862    -0.19900
F2286       F  0.45009099  0.79300728  0.19693417    -0.19900
F2287       F  0.40656879  0.78334897  0.21475110    -0.20300
F2288       F  0.44603244  0.78349062  0.23208204    -0.22900
C2289       C  0.48581816  0.64863084  0.09744076    -0.05800
C2290       C  0.47436794  0.66943189  0.09625436     0.00200
C2291       C  0.45246901  0.66728137  0.11210508    -0.08400
C2292       C  0.44221579  0.64369489  0.12763079    -0.05800
C2293       C  0.45206618  0.62179717  0.12757244     0.00100
C2294       C  0.47519879  0.62501206  0.11285214    -0.08300
C2295       C  0.48900993  0.60390992  0.11363360     0.62100
H2296       H  0.00230724  0.64785405  0.08396546     0.12800
H2297       H  0.42576156  0.64166992  0.13988656     0.12800
C2298       C  0.43902455  0.68881767  0.11264091     0.62300
F2299       F  0.96183867  0.57025079  0.10789772    -0.22900
F2300       F  0.50450139  0.60818216  0.13285099    -0.20200
F2301       F  0.50994087  0.60974534  0.09709637    -0.19900
F2302       F  0.42181579  0.68467722  0.09426409    -0.19900
F2303       F  0.46284189  0.71926056  0.11416359    -0.20300
F2304       F  0.41942473  0.68312979  0.13002092    -0.22900
C2305       C  0.36715270  0.52379246  0.09162697    -0.05800
C2306       C  0.35277326  0.54058648  0.08523904     0.00200
C2307       C  0.36008781  0.56823450  0.09678885    -0.08400
C2308       C  0.37903321  0.57613382  0.11523327    -0.05800
C2309       C  0.39301150  0.55909529  0.12184283     0.00100
C2310       C  0.38736566  0.53260941  0.10947573    -0.08300
C2311       C  0.40194528  0.51269895  0.11382143     0.62100
H2312       H  0.34996204  0.99619426  0.08804209     0.12800
H2313       H  0.38259013  0.59563400  0.12498339     0.12800
C2314       C  0.34912366  0.59027487  0.08950635     0.62300
F2315       F  0.36593060  0.98784525  0.13846884    -0.22900
F2316       F  0.42228900  0.52287525  0.13089549    -0.20200
F2317       F  0.41825523  0.51249418  0.09580288    -0.19900
F2318       F  0.31745580  0.57699688  0.09270131    -0.19900
F2319       F  0.35597921  0.59712601  0.06800197    -0.20300
F2320       F  0.36353411  0.61798376  0.10079877    -0.22900
C2321       C  0.38577018  0.54250599  0.21358835    -0.05800
C2322       C  0.40382668  0.53665279  0.19902702     0.00200
C2323       C  0.41339878  0.51519745  0.20456830    -0.08400
C2324       C  0.40539048  0.50119020  0.22490413    -0.05800
C2325       C  0.38855358  0.50806006  0.24017288     0.00100
C2326       C  0.37797890  0.52883588  0.23411512    -0.08300
C2327       C  0.35829197  0.53661987  0.24883485     0.62100
H2328       H  0.37865103  0.55890979  0.20887914     0.12800
H2329       H  0.41274724  0.48468748  0.22889114     0.12800
C2330       C  0.43135049  0.50556053  0.18960404     0.62300
F2331       F  0.34935310  0.55580930  0.23904207    -0.22900
F2332       F  0.37517108  0.55177092  0.26696697    -0.20200
F2333       F  0.32866523  0.01337719  0.25475981    -0.19900
F2334       F  0.45690168  0.50788091  0.20021013    -0.19900
F2335       F  0.44191904  0.52314471  0.17124104    -0.20300
F2336       F  0.41207352  0.47515878  0.18347572    -0.22900
C2337       C  0.18470226  0.63362969  0.12684386    -0.05800
C2338       C  0.21010937  0.63363454  0.13669618     0.00200
C2339       C  0.23977802  0.64937551  0.12670730    -0.08400
C2340       C  0.24219049  0.66185717  0.10624921    -0.05800
C2341       C  0.21653583  0.66070963  0.09589373     0.00100
C2342       C  0.18743594  0.64739050  0.10671587    -0.08300
C2343       C  0.15969656  0.64866590  0.09763838     0.62100
H2344       H  0.16227939  0.62168638  0.13479527     0.12800
H2345       H  0.26479792  0.67343773  0.09846234     0.12800
C2346       C  0.26980612  0.65477768  0.13692654     0.62300
F2347       F  0.13501359  0.63724320  0.11194279    -0.22900
F2348       F  0.14943475  0.63113808  0.07906126    -0.20200
F2349       F  0.16814553  0.67903579  0.09320271    -0.19900
F2350       F  0.28317652  0.64175734  0.12416421    -0.19900
F2351       F  0.26563373  0.64275502  0.15733131    -0.20300
F2352       F  0.29030470  0.68628949  0.13834481    -0.22900
C2353       C  0.24499368  0.56592691  0.10945204    -0.05800
C2354       C  0.22689031  0.56390948  0.09155497     0.00200
C2355       C  0.20053889  0.56768411  0.09438474    -0.08400
C2356       C  0.19321102  0.57273675  0.11513083    -0.05800
C2357       C  0.21222376  0.57630742  0.13273379     0.00100
C2358       C  0.23846205  0.57244870  0.13006138    -0.08300
C2359       C  0.25990666  0.57399739  0.14803363     0.62100
H2360       H  0.26417678  0.56157639  0.10748652     0.12800
H2361       H  0.17236344  0.57414681  0.11783623     0.12800
C2362       C  0.17970048  0.56608081  0.07599496     0.62300
F2363       F  0.29062977  0.59267714  0.14189704    -0.22900
F2364       F  0.25481171  0.54450674  0.15176651    -0.20200
F2365       F  0.25575295  0.58576831  0.16706015    -0.19900
F2366       F  0.16066813  0.53559723  0.06980434    -0.19900
F2367       F  0.19759306  0.58321697  0.05878285    -0.20300
F2368       F  0.16070563  0.57789684  0.08186872    -0.22900
C2369       C  0.14624564  0.51682068  0.20172165    -0.05800
C2370       C  0.17257656  0.54576519  0.20635846     0.00200
C2371       C  0.18775433  0.55023987  0.22629699    -0.08400
C2372       C  0.17390273  0.52697069  0.24177538    -0.05800
C2373       C  0.14832700  0.00221474  0.23806086     0.00100
C2374       C  0.13330606  0.99792204  0.21793542    -0.08300
C2375       C  0.10261749  0.96912854  0.21259347     0.62100
H2376       H  0.13542454  0.51347719  0.18612479     0.12800
H2377       H  0.18459685  0.53155273  0.25750637     0.12800
C2378       C  0.21847564  0.57878957  0.23205707     0.62300
F2379       F  0.09528233  0.96772527  0.19104892    -0.22900
F2380       F  0.07896423  0.96927204  0.22428116    -0.20200
F2381       F  0.10418749  0.94287942  0.21733971    -0.19900
F2382       F  0.21291791  0.59778576  0.24537062    -0.19900
F2383       F  0.23479616  0.59519810  0.21419781    -0.20300
F2384       F  0.23729276  0.57016518  0.24283484    -0.22900
C2385       C  0.00211784  0.69583869  0.43065988    -0.05800
C2386       C  0.02975123  0.71441375  0.41931216     0.00200
C2387       C  0.05090107  0.74453204  0.42721002    -0.08400
C2388       C  0.04590169  0.75313486  0.44764423    -0.05800
C2389       C  0.01897238  0.73429743  0.45953472     0.00100
C2390       C  0.99586113  0.70566609  0.45045904    -0.08300
C2391       C  0.45906431  0.68143909  0.45862004     0.62100
H2392       H  0.98567555  0.67334687  0.42407990     0.12800
H2393       H  0.06304621  0.77512811  0.45437314     0.12800
C2394       C  0.07757927  0.76849463  0.41363132     0.62300
F2395       F  0.94336217  0.66342482  0.44725146    -0.22900
F2396       F  0.95208136  0.70397093  0.46769777    -0.20200
F2397       F  0.46161073  0.66692350  0.47664976    -0.19900
F2398       F  0.06694346  0.76899670  0.39322764    -0.19900
F2399       F  0.10129008  0.76166550  0.41227583    -0.20300
F2400       F  0.08987741  0.79799976  0.42222947    -0.22900
C2401       C  0.21745670  0.73791876  0.41140230    -0.05800
C2402       C  0.17773913  0.73056959  0.41563964     0.00200
C2403       C  0.15920543  0.71804287  0.44232349    -0.08400
C2404       C  0.18000565  0.71129675  0.46414885    -0.05800
C2405       C  0.22028317  0.71947786  0.45964892     0.00100
C2406       C  0.23839071  0.73106586  0.43287684    -0.08300
C2407       C  0.26924898  0.73362084  0.42804766     0.62100
H2408       H  0.22776408  0.74405804  0.39562451     0.12800
H2409       H  0.16996350  0.70584485  0.48009156     0.12800
C2410       C  0.12651683  0.71111031  0.44584595     0.62300
F2411       F  0.26494485  0.71122448  0.41310999    -0.22900
F2412       F  0.28208775  0.72913529  0.44635704    -0.20200
F2413       F  0.28949630  0.76245314  0.41971087    -0.19900
F2414       F  0.11737926  0.70154985  0.46669546    -0.19900
F2415       F  0.10679342  0.68781349  0.43197628    -0.20300
F2416       F  0.12468150  0.73742854  0.44217620    -0.22900
C2417       C  0.48479170  0.58229059  0.20312313    -0.05800
C2418       C  0.46346283  0.59282238  0.20164293     0.00200
C2419       C  0.45827849  0.60696525  0.21970875    -0.08400
C2420       C  0.47331754  0.60825045  0.23905847    -0.05800
C2421       C  0.49451603  0.59726801  0.24092774     0.00100
C2422       C  0.50066630  0.58434965  0.22231734    -0.08300
C2423       C  0.02415270  0.57706929  0.22400256     0.62100
H2424       H  0.48873537  0.57212780  0.18891116     0.12800
H2425       H  0.46901800  0.61909406  0.25276082     0.12800
C2426       C  0.43811145  0.62198383  0.21951524     0.62300
F2427       F  0.02375793  0.56129633  0.20553667    -0.22900
F2428       F  0.01652746  0.55685559  0.24102165    -0.20200
F2429       F  0.05406287  0.60181244  0.22636337    -0.19900
F2430       F  0.41469560  0.60794691  0.23462055    -0.19900
F2431       F  0.42459830  0.62023675  0.19983442    -0.20300
F2432       F  0.45630176  0.65295667  0.22489396    -0.22900
C2433       C  0.14405675  0.58632989  0.22054296    -0.05800
C2434       C  0.17337034  0.60745734  0.21205330     0.00200
C2435       C  0.19072167  0.63728680  0.22174613    -0.08400
C2436       C  0.17666352  0.64564983  0.23804204    -0.05800
C2437       C  0.14747155  0.62445759  0.24651043     0.00100
C2438       C  0.13172555  0.59364096  0.23852345    -0.08300
C2439       C  0.10332701  0.56800247  0.24970497     0.62100
H2440       H  0.13068375  0.56385770  0.21299237     0.12800
H2441       H  0.18925519  0.66878658  0.24486049     0.12800
C2442       C  0.22430252  0.66091505  0.21627381     0.62300
F2443       F  0.09491795  0.53911745  0.24121622    -0.22900
F2444       F  0.07832642  0.57266122  0.24761346    -0.20200
F2445       F  0.10971691  0.56767407  0.27125232    -0.19900
F2446       F  0.22508994  0.68542977  0.20547165    -0.19900
F2447       F  0.23896050  0.64888068  0.20393535    -0.20300
F2448       F  0.24129544  0.67201834  0.23503333    -0.22900
O2449       O  0.52426210  0.13930808  0.32530287    -0.88300
C2450       C  0.59599409  0.18417322  0.28190978     0.87700
Mg2451     Mg  0.51806968  0.16259935  0.35254472     1.58100
O2452       O  0.60446904  0.13315891  0.31724685    -0.88100
O2453       O  0.52955258  0.09973172  0.31612792    -0.75400
C2454       C  0.65347459  0.23020018  0.39809229     0.92800
O2455       O  0.55544035  0.21025410  0.31056351    -0.75200
O2456       O  0.62842964  0.23098209  0.39856273    -0.82700
Mg2457     Mg  0.52982272  0.16141797  0.29507887     1.58000
C2458       C  0.69374115  0.16973628  0.34724717     0.92700
O2459       O  0.50227935  0.11512781  0.27731109    -0.81000
H2460       H  0.59184919  0.09138167  0.32932181    -0.06300
C2461       C  0.64892751  0.22526220  0.33377193     0.87600
O2462       O  0.54209145  0.14317391  0.37420351    -0.75500
O2463       O  0.57408963  0.16208291  0.29104188    -0.88200
O2464       O  0.67878440  0.16031912  0.32956437    -0.81100
C2465       C  0.63667254  0.13340673  0.26574169     0.92800
C2466       C  0.51159920  0.10574888  0.26144079     0.92600
Mg2467     Mg  0.63670285  0.17632509  0.36556488     1.58000
O2468       O  0.66260168  0.22427165  0.38069033    -0.81000
O2469       O  0.61240204  0.12677309  0.35090386    -0.75200
O2470       O  0.60796431  0.12577232  0.26617099    -0.81100
O2471       O  0.98206710  0.15908938  0.30230839    -0.82800
O2472       O  0.55904469  0.20466736  0.39580061    -0.81100
C2473       C  0.60242091  0.11601058  0.33218878     0.87100
O2474       O  0.59193512  0.17361964  0.36891090    -0.88200
O2475       O  0.64098146  0.19753138  0.33532113    -0.88300
O2476       O  0.63561231  0.23709077  0.34467235    -0.75400
Mg2477     Mg  0.57002915  0.11698535  0.29156810     1.58000
O2478       O  0.65526302  0.14929888  0.28074573    -0.82800
H2479       H  0.49673983  0.09690458  0.33712080    -0.06500
O2480       O  0.56168518  0.20299837  0.34435902    -0.88000
H2481       H  0.57598515  0.24518732  0.33243285    -0.06300
H2482       H  0.57549766  0.13788510  0.38918959    -0.06500
C2483       C  0.56477371  0.22053969  0.32943612     0.87100
C2484       C  0.51591212  0.11150464  0.32664568     0.87600
C2485       C  0.57032049  0.15111978  0.37795108     0.87700
H2486       H  0.66756636  0.23977240  0.32290552    -0.06500
O2487       O  0.62407452  0.19225930  0.28628775    -0.75500
Mg2488     Mg  0.59561819  0.21821993  0.36982809     1.58000
H2489       H  0.59120147  0.19700958  0.27008592    -0.06500
C2490       C  0.97260355  0.16786869  0.31842582     0.92700
O2491       O  0.51213149  0.18777598  0.38191486    -0.82700
C2492       C  0.53180239  0.20079376  0.39700988     0.92700
O2493       O  0.53623892  0.10401166  0.26312583    -0.82700
Mg2494     Mg  0.64813688  0.17412328  0.30901524     1.58200
O2495       O  0.48862903  0.17803431  0.33279441    -0.81000
O2496       O  0.68439999  0.18021881  0.36236852    -0.82700
C2497       C  0.68182999  0.09735919  0.19085084     0.02300
C2498       C  0.68066266  0.06856350  0.18711078     0.02300
C2499       C  0.68849981  0.06204255  0.16684733    -0.18300
C2500       C  0.69956022  0.08422292  0.15056398     0.02300
C2501       C  0.70001339  0.11249730  0.15405147     0.02300
C2502       C  0.69004679  0.11814416  0.17370700    -0.18300
H2503       H  0.68881113  0.13909504  0.17562908     0.04300
H2504       H  0.68703359  0.03987237  0.16395701     0.04300
C2505       C  0.94024698  0.08552456  0.18227713     0.02300
C2506       C  0.91107212  0.05807477  0.18135922     0.02300
C2507       C  0.89438236  0.04916398  0.16185172    -0.18300
C2508       C  0.90644000  0.06718194  0.14307949     0.02300
C2509       C  0.93543793  0.09552358  0.14445932     0.02300
C2510       C  0.95196032  0.10395915  0.16394981    -0.18300
H2511       H  0.97404289  0.12541500  0.16496360     0.04300
H2512       H  0.87208987  0.02792162  0.16120682     0.04300
O2513       O  0.64555319  0.44373108  0.33594098    -0.88300
C2514       C  0.57991090  0.43571929  0.37883042     0.87700
Mg2515     Mg  0.64839014  0.46161142  0.30436332     1.58100
O2516       O  0.56560561  0.36593546  0.35417032    -0.88100
O2517       O  0.64000902  0.40178969  0.35076991    -0.75400
C2518       C  0.50570990  0.38618589  0.26266621     0.92800
O2519       O  0.61518298  0.48672844  0.34080939    -0.75200
O2520       O  0.53062357  0.41243537  0.26179811    -0.82700
Mg2521     Mg  0.64279591  0.47082269  0.36182459     1.58000
C2522       C  0.97594746  0.30569264  0.33416599     0.92700
O2523       O  0.67132822  0.46048855  0.38667114    -0.81000
H2524       H  0.57677684  0.33312579  0.34868273    -0.06300
C2525       C  0.51888146  0.40561664  0.32629230     0.87600
O2526       O  0.62137239  0.41219078  0.29035571    -0.75500
O2527       O  0.60055166  0.43083408  0.37213215    -0.88200
O2528       O  0.49052096  0.31822315  0.35044579    -0.81100
C2529       C  0.53982627  0.35195421  0.40802490     0.92800
C2530       C  0.66612454  0.44075856  0.40138983     0.92600
Mg2531     Mg  0.52853741  0.35787740  0.30315191     1.58000
O2532       O  0.49988105  0.36782538  0.27842764    -0.81000
O2533       O  0.55496482  0.34051784  0.32384705    -0.75200
O2534       O  0.56884113  0.37036808  0.40509246    -0.81100
O2535       O  0.68514454  0.01557784  0.35079560    -0.82800
O2536       O  0.60477759  0.45745383  0.25796740    -0.81100
C2537       C  0.56606064  0.34589285  0.34270455     0.87100
O2538       O  0.57166032  0.39722752  0.29229394    -0.88200
O2539       O  0.52701658  0.38618361  0.32892249    -0.88300
O2540       O  0.53175501  0.42663825  0.31225238    -0.75400
Mg2541     Mg  0.60291197  0.38903700  0.37684508     1.58000
O2542       O  0.52009747  0.34801609  0.39371100    -0.82800
H2543       H  0.67174168  0.42526540  0.32747689    -0.06500
O2544       O  0.60594983  0.46272646  0.30985366    -0.88000
H2545       H  0.59258418  0.49370166  0.31627745    -0.06300
H2546       H  0.58717064  0.37093751  0.27888059    -0.06500
C2547       C  0.60421860  0.48161929  0.32187372     0.87100
C2548       C  0.65352864  0.42405366  0.33773531     0.87600
C2549       C  0.59294753  0.39261259  0.28664292     0.87700
H2550       H  0.50079533  0.40502764  0.33637383    -0.06500
O2551       O  0.55131572  0.41684037  0.37532949    -0.75500
Mg2552     Mg  0.56937278  0.43886091  0.28633053     1.58000
H2553       H  0.58643933  0.45717783  0.38719017    -0.06500
C2554       C  0.69282052  0.02906196  0.33269699     0.92700
O2555       O  0.65230417  0.48050880  0.27163168    -0.82700
C2556       C  0.63400241  0.47599660  0.25614398     0.92700
O2557       O  0.64181504  0.41402639  0.40099126    -0.82700
Mg2558     Mg  0.52385586  0.36809162  0.36086146     1.58200
O2559       O  0.67758309  0.01647271  0.31568611    -0.81000
O2560       O  0.98320423  0.31785663  0.31561604    -0.82700
O2561       O  0.80820040  0.36260426  0.34221623    -0.88300
C2562       C  0.87326461  0.43141757  0.38018634     0.87700
Mg2563     Mg  0.81897178  0.35709974  0.30971613     1.58100
O2564       O  0.81417281  0.44338349  0.35990903    -0.88100
O2565       O  0.77472363  0.36974473  0.36057825    -0.75400
C2566       C  0.88231740  0.49351142  0.26232575     0.92800
O2567       O  0.88277191  0.39041251  0.34177538    -0.75200
O2568       O  0.88367685  0.46873698  0.26303134    -0.82700
Mg2569     Mg  0.84194990  0.36618787  0.36542784     1.58000
C2570       C  0.83350340  0.02886801  0.33681866     0.92700
O2571       O  0.80669178  0.34019734  0.39235578    -0.81000
H2572       H  0.76947008  0.43179121  0.35695877    -0.06300
C2573       C  0.89693702  0.48744609  0.32692215     0.87600
O2574       O  0.79566168  0.38371791  0.29696372    -0.75500
O2575       O  0.84709337  0.41001847  0.37528067    -0.88200
O2576       O  0.83760730  0.51673476  0.35300078    -0.81100
C2577       C  0.83234744  0.47252160  0.41272731     0.92800
C2578       C  0.79583542  0.34722893  0.40863431     0.92600
Mg2579     Mg  0.83698376  0.47658609  0.30665685     1.58000
O2580       O  0.87242010  0.50208705  0.27848751    -0.81000
O2581       O  0.79594260  0.45223301  0.33057488    -0.75200
O2582       O  0.82863272  0.44541004  0.41090331    -0.81100
O2583       O  0.83533842  0.31961514  0.35432071    -0.82800
O2584       O  0.85246138  0.39730215  0.26219850    -0.81100
C2585       C  0.79228313  0.44206096  0.34964386     0.87100
O2586       O  0.83142121  0.43278660  0.29709505    -0.88200
O2587       O  0.86983151  0.48058771  0.33087354    -0.88300
O2588       O  0.90311005  0.47276242  0.31286353    -0.75400
Mg2589     Mg  0.80455500  0.40886384  0.38431602     1.58000
O2590       O  0.84238065  0.49100334  0.39699995    -0.82800
H2591       H  0.76225208  0.33649507  0.33765766    -0.06500
O2592       O  0.86338508  0.39900362  0.31303029    -0.88000
H2593       H  0.90807873  0.41024264  0.31490157    -0.06300
H2594       H  0.78849940  0.41781582  0.28582775    -0.06500
C2595       C  0.88560621  0.40016671  0.32269881     0.87100
C2596       C  0.78102139  0.35521373  0.34648449     0.87600
C2597       C  0.80477277  0.41187530  0.29276395     0.87700
H2598       H  0.91573996  0.50593867  0.33587692    -0.06500
O2599       O  0.88134171  0.45961031  0.37679895    -0.75500
Mg2600     Mg  0.87397882  0.43347865  0.28886800     1.58000
H2601       H  0.88985867  0.42600783  0.38723452    -0.06500
C2602       C  0.83677639  0.31011999  0.33557176     0.92700
O2603       O  0.83145580  0.35082152  0.27656091    -0.82700
C2604       C  0.84416602  0.36873048  0.26089019     0.92700
O2605       O  0.79476252  0.37219734  0.40968595    -0.82700
Mg2606     Mg  0.85742516  0.48575839  0.36351923     1.58200
O2607       O  0.83736651  0.32471858  0.31883162    -0.81000
O2608       O  0.83490784  0.01912047  0.31813630    -0.82700
C2609       C  0.89246727  0.33593747  0.18714292     0.02300
C2610       C  0.92133240  0.33665396  0.18673461     0.02300
C2611       C  0.93056071  0.32851061  0.16733624    -0.18300
C2612       C  0.91155142  0.31981037  0.14871776     0.02300
C2613       C  0.88225882  0.31840888  0.15007442     0.02300
C2614       C  0.87351982  0.32678048  0.16906800    -0.18300
H2615       H  0.85223240  0.32791265  0.16951275     0.04300
H2616       H  0.95267146  0.32916314  0.16671425     0.04300
O2617       O  0.71575703  0.03057583  0.00415765    -0.88300
C2618       C  0.74175709  0.47890092  0.04591430     0.87700
Mg2619     Mg  0.68842053  0.01042652  0.97615983     1.58100
O2620       O  0.80367200  0.03605425  0.01204525    -0.88100
O2621       O  0.76194596  0.06867188  0.01307489    -0.75400
C2622       C  0.76130323  0.44825317  0.92520743     0.92800
O2623       O  0.67716155  0.45314468  0.01642069    -0.75200
O2624       O  0.73459360  0.44541270  0.92771862    -0.82700
Mg2625     Mg  0.69739381  0.49945570  0.03474169     1.58000
C2626       C  0.86021967  0.00596821  0.98044492     0.92700
O2627       O  0.71313438  0.04533454  0.05363803    -0.81000
H2628       H  0.83380854  0.07976365  0.00382396    -0.06300
C2629       C  0.75972699  0.44574970  0.99058453     0.87600
O2630       O  0.73309903  0.03284271  0.95505718    -0.75500
O2631       O  0.74201579  0.50163292  0.03798156    -0.88200
O2632       O  0.85126889  0.00848618  0.99924778    -0.81100
C2633       C  0.82951237  0.03054069  0.06488045     0.92800
C2634       C  0.73464515  0.05960578  0.06719737     0.92600
Mg2635     Mg  0.79812894  0.00334524  0.95990801     1.58000
O2636       O  0.78191307  0.45944784  0.93984350    -0.81000
O2637       O  0.82028185  0.04887407  0.97919913    -0.75200
O2638       O  0.80849852  0.03794170  0.06312695    -0.81100
O2639       O  0.65031496  0.49773591  0.03217764    -0.82800
O2640       O  0.68565460  0.46671048  0.93180576    -0.81100
C2641       C  0.82002682  0.05586143  0.99877252     0.87100
O2642       O  0.75423296  0.00346547  0.95676498    -0.88200
O2643       O  0.77913100  0.47371295  0.99103060    -0.88300
O2644       O  0.73477740  0.43514739  0.97967533    -0.75400
Mg2645     Mg  0.78309976  0.04967123  0.03726075     1.58000
O2646       O  0.83446963  0.01615029  0.04963295    -0.82800
H2647       H  0.73240758  0.07362352  0.99321976    -0.06500
O2648       O  0.69130085  0.46580829  0.98308014    -0.88000
H2649       H  0.66470592  0.42174292  0.99217634    -0.06300
H2650       H  0.77278947  0.04212761  0.93923080    -0.06500
C2651       C  0.67701104  0.44589601  0.99683510     0.87100
C2652       C  0.73618506  0.05817643  0.00323072     0.87600
C2653       C  0.75429016  0.02667639  0.94986185     0.87700
H2654       H  0.76387163  0.42995610  0.99991168    -0.06500
O2655       O  0.76224267  0.47175718  0.04100535    -0.75500
Mg2656     Mg  0.71245997  0.45479642  0.95658875     1.58000
H2657       H  0.72337914  0.46446190  0.05697116    -0.06500
C2658       C  0.63250453  0.49261834  0.01620959     0.92700
O2659       O  0.65739741  0.48412615  0.94813291    -0.82700
C2660       C  0.66271885  0.47152107  0.93208967     0.92700
O2661       O  0.76154846  0.06281055  0.06455400    -0.82700
Mg2662     Mg  0.80632531  0.49342441  0.01998392     1.58200
O2663       O  0.64063360  0.48998149  0.99716749    -0.85800
O2664       O  0.84391853  0.00225217  0.96373351    -0.82700
O2665       O  0.77298913  0.31050571  0.99791390    -0.88300
C2666       C  0.76840865  0.24065765  0.95973767     0.87700
Mg2667     Mg  0.79078883  0.31649252  0.02959156     1.58100
O2668       O  0.69660733  0.22395864  0.98220991    -0.88100
O2669       O  0.72791507  0.29727852  0.98341118    -0.75400
C2670       C  0.72191732  0.18060174  0.07593229     0.92800
O2671       O  0.82118050  0.28315903  0.99611754    -0.75200
O2672       O  0.74736810  0.20591768  0.07446389    -0.82700
Mg2673     Mg  0.80154172  0.30501677  0.97348823     1.58000
C2674       C  0.63707566  0.13630545  0.00512647     0.92700
O2675       O  0.78951675  0.32830855  0.94683412    -0.81000
H2676       H  0.66089421  0.23188695  0.98364575    -0.06300
C2677       C  0.74028294  0.18486769  0.01249310     0.87600
O2678       O  0.74099707  0.28763199  0.04365852    -0.75500
O2679       O  0.76231021  0.26067410  0.96581101    -0.88200
O2680       O  0.65162799  0.14956825  0.98813736    -0.81100
C2681       C  0.68534037  0.19648654  0.92955267     0.92800
C2682       C  0.76812900  0.32006685  0.93291766     0.92600
Mg2683     Mg  0.68881502  0.19348152  0.03358894     1.58000
O2684       O  0.70174398  0.17058062  0.06090775    -0.81000
O2685       O  0.66842237  0.21456728  0.01089308    -0.75200
O2686       O  0.70666101  0.22459593  0.93173532    -0.81100
O2687       O  0.84316305  0.35151022  0.98236756    -0.82800
O2688       O  0.78004548  0.27659548  0.07489793    -0.81100
C2689       C  0.67459434  0.22359681  0.99167861     0.87100
O2690       O  0.72739454  0.23861495  0.04109076    -0.88200
O2691       O  0.71829988  0.18941297  0.00926620    -0.88300
O2692       O  0.76223833  0.20178389  0.02530214    -0.75400
Mg2693     Mg  0.71896896  0.25933061  0.95902370     1.58000
O2694       O  0.67944568  0.17716620  0.94443057    -0.82800
H2695       H  0.74970509  0.33264547  0.00466697    -0.06500
O2696       O  0.79356096  0.27522028  0.02491980    -0.88000
H2697       H  0.82826627  0.26577908  0.02350241    -0.06300
H2698       H  0.69950238  0.25251181  0.05419744    -0.06500
C2699       C  0.81504980  0.27458517  0.01542107     0.87100
C2700       C  0.75062524  0.31465126  0.99547928     0.87600
C2701       C  0.72164175  0.25906870  0.04670060     0.87700
H2702       H  0.74137380  0.16669879  0.00365756    -0.06500
O2703       O  0.74985548  0.21206051  0.96303512    -0.75500
Mg2704     Mg  0.77050366  0.24078736  0.04892968     1.58000
H2705       H  0.79042583  0.24772408  0.95187630    -0.06500
C2706       C  0.85441804  0.36310940  0.00066950     0.92700
O2707       O  0.81243589  0.32240885  0.06189714    -0.82700
C2708       C  0.80438178  0.30292881  0.07685867     0.92700
O2709       O  0.74177285  0.29585755  0.93453825    -0.82700
Mg2710     Mg  0.70064871  0.18347039  0.97719672     1.58200
O2711       O  0.84023811  0.35103024  0.01809600    -0.81000
O2712       O  0.64786654  0.14641481  0.02384951    -0.82700
O2713       O  0.52530579  0.22186281  0.99551638    -0.88300
C2714       C  0.96859889  0.22891803  0.95303292     0.87700
Mg2715     Mg  0.51205408  0.20451286  0.02798617     1.58100
O2716       O  0.52196281  0.29802366  0.97445145    -0.88100
O2717       O  0.56000954  0.26221770  0.97783599    -0.75400
C2718       C  0.94824071  0.28080835  0.07040670     0.92800
O2719       O  0.95356869  0.17865061  0.99182423    -0.75200
O2720       O  0.94614825  0.25427058  0.07074584    -0.82700
Mg2721     Mg  0.99651834  0.19395225  0.97015436     1.58000
C2722       C  0.49380739  0.35856170  0.99679639     0.92700
O2723       O  0.53189338  0.20187775  0.94486764    -0.81000
H2724       H  0.56667561  0.32925486  0.97961040    -0.06300
C2725       C  0.93986599  0.26012668  0.00669808     0.87600
O2726       O  0.53372588  0.25343015  0.04223411    -0.75500
O2727       O  0.99422083  0.23378589  0.95935541    -0.88200
O2728       O  0.49140509  0.34353579  0.97975443    -0.81100
C2729       C  0.50751770  0.31070143  0.92111680     0.92800
C2730       C  0.54494420  0.22007672  0.92901811     0.92600
Mg2731     Mg  0.49628399  0.30664171  0.02733606     1.58000
O2732       O  0.96190596  0.29973137  0.05500948    -0.81000
O2733       O  0.53859120  0.32173712  0.00530631    -0.75200
O2734       O  0.51808593  0.29210921  0.92294780    -0.81100
O2735       O  0.99827116  0.15133564  0.98167952    -0.82800
O2736       O  0.97458520  0.20887022  0.07444530    -0.81100
C2737       C  0.54323976  0.31707074  0.98595621     0.87100
O2738       O  0.49872342  0.26726927  0.03856376    -0.88200
O2739       O  0.96744787  0.27947325  0.00349225    -0.88300
O2740       O  0.93201106  0.23918264  0.02073190    -0.75400
Mg2741     Mg  0.53449144  0.27351938  0.95166300     1.58000
O2742       O  0.49224329  0.31397340  0.93636100    -0.82800
H2743       H  0.57077658  0.24227271  0.00212837    -0.06500
O2744       O  0.96946549  0.20231086  0.02279341    -0.88000
H2745       H  0.92474843  0.17159310  0.01703049    -0.06300
H2746       H  0.53920073  0.29415777  0.05343622    -0.06500
C2747       C  0.94837716  0.18354651  0.01102043     0.87100
C2748       C  0.55268024  0.24181852  0.99224605     0.87600
C2749       C  0.52423900  0.27248534  0.04531236     0.87700
H2750       H  0.92206684  0.26063189  0.99703552    -0.06500
O2751       O  0.95933884  0.24809032  0.95657283    -0.75500
Mg2752     Mg  0.95759508  0.22706709  0.04622942     1.58000
H2753       H  0.95330353  0.20738069  0.94487109    -0.06500
C2754       C  0.99741313  0.14037609  0.00026065     0.92700
O2755       O  0.99576509  0.18254857  0.06089438    -0.82700
C2756       C  0.98158908  0.18757588  0.07606277     0.92700
O2757       O  0.54650490  0.24631446  0.92781028    -0.82700
Mg2758     Mg  0.98073399  0.29693201  0.97104438     1.58200
O2759       O  0.99843175  0.15479400  0.01734290    -0.81000
O2760       O  0.49422730  0.34836083  0.01538330    -0.82700
O2761       O  0.64680390  0.02502590  0.67474971    -0.88300
C2762       C  0.70006355  0.10133361  0.71294692     0.87700
Mg2763     Mg  0.66243318  0.01842143  0.64411929     1.58100
O2764       O  0.63979172  0.10447708  0.68522509    -0.88100
O2765       O  0.60852353  0.03057929  0.68717881    -0.75400
C2766       C  0.72044193  0.15364677  0.59567652     0.92800
O2767       O  0.72225147  0.06088194  0.68001190    -0.75200
O2768       O  0.72404394  0.13027068  0.59714113    -0.82700
Mg2769     Mg  0.67900818  0.03595858  0.70134635     1.58000
C2770       C  0.66116536  0.19013440  0.65510375     0.92700
O2771       O  0.64177958  0.00977599  0.72677845    -0.81000
H2772       H  0.59451217  0.08795205  0.67945385    -0.06300
C2773       C  0.72591781  0.15165053  0.65978125     0.87600
O2774       O  0.63818737  0.04107027  0.62654987    -0.75500
O2775       O  0.67682671  0.07797755  0.70600464    -0.88200
O2776       O  0.66071515  0.17911451  0.67368841    -0.81100
C2777       C  0.64789426  0.13484707  0.73731809     0.92800
C2778       C  0.62617306  0.01547120  0.74036987     0.92600
Mg2779     Mg  0.66727452  0.13356582  0.63339059     1.58000
O2780       O  0.70746099  0.16095234  0.61041471    -0.81000
O2781       O  0.62275812  0.10746450  0.65368292    -0.75200
O2782       O  0.64738092  0.10913771  0.73637718    -0.81100
O2783       O  0.67739025  0.49139998  0.69595520    -0.82800
O2784       O  0.69961805  0.05888153  0.59783342    -0.81100
C2785       C  0.61804120  0.09962656  0.67325653     0.87100
O2786       O  0.66886135  0.09124415  0.62845383    -0.88200
O2787       O  0.69807366  0.14417855  0.66059722    -0.88300
O2788       O  0.73549234  0.13679196  0.64838555    -0.75400
Mg2789     Mg  0.63083887  0.07164100  0.71055648     1.58000
O2790       O  0.65781447  0.15383542  0.72175375    -0.82800
H2791       H  0.60236572  0.99577606  0.66710899    -0.06500
O2792       O  0.70442201  0.06285260  0.64855470    -0.88000
H2793       H  0.74966608  0.07849629  0.65369324    -0.06300
H2794       H  0.62839762  0.07192889  0.61264716    -0.06500
C2795       C  0.72635885  0.06755534  0.66026083     0.87100
C2796       C  0.61866947  0.01598157  0.67616154     0.87600
C2797       C  0.64469957  0.06845812  0.62201062     0.87700
H2798       H  0.74249993  0.17090679  0.66945938    -0.06500
O2799       O  0.70491680  0.12839682  0.70894651    -0.75500
Mg2800     Mg  0.71432670  0.09640097  0.62395465     1.58000
H2801       H  0.71670512  0.09872165  0.72255647    -0.06500
C2802       C  0.67873054  0.47816345  0.67880898     0.92700
O2803       O  0.67908503  0.01141170  0.61108867    -0.82700
C2804       C  0.69052286  0.03022955  0.59541585     0.92700
O2805       O  0.62118142  0.03783359  0.73757836    -0.82700
Mg2806     Mg  0.67966883  0.14975526  0.69043747     1.58200
O2807       O  0.67981200  0.98803728  0.66023850    -0.81000
O2808       O  0.66529624  0.17833076  0.63812826    -0.82700
C2809       C  0.60931297  0.17421804  0.85386409     0.02300
C2810       C  0.58061953  0.17389611  0.85438188     0.02300
C2811       C  0.56227024  0.16561971  0.83556594    -0.18300
C2812       C  0.57237683  0.15823586  0.81632153     0.02300
C2813       C  0.60252368  0.16145693  0.81568577     0.02300
C2814       C  0.61968601  0.16774376  0.83465249    -0.18300
H2815       H  0.64142266  0.16749828  0.83453044     0.04300
H2816       H  0.54017874  0.16512204  0.83589190     0.04300
C2817       C  0.58115535  0.43435203  0.85785386     0.02300
C2818       C  0.55209517  0.40650048  0.85536264     0.02300
C2819       C  0.53660111  0.40021425  0.83555307    -0.18300
C2820       C  0.55001603  0.41985103  0.81788996     0.02300
C2821       C  0.57945142  0.44701073  0.82006755     0.02300
C2822       C  0.59469453  0.45378803  0.83996651    -0.18300
H2823       H  0.61770377  0.47392332  0.84147761     0.04300
H2824       H  0.51414415  0.37940262  0.83377096     0.04300
O2825       O  0.97584321  0.11589968  0.67307611    -0.88300
C2826       C  0.90329780  0.09628049  0.71448208     0.87700
Mg2827     Mg  0.98104076  0.13706228  0.64182227     1.58100
O2828       O  0.89963689  0.03161034  0.68811914    -0.88100
O2829       O  0.97393278  0.07550980  0.68815212    -0.75400
C2830       C  0.84276569  0.05336069  0.59690485     0.92800
O2831       O  0.93845881  0.15329600  0.67846057    -0.75200
O2832       O  0.86613689  0.08067131  0.59634642    -0.82700
Mg2833     Mg  0.96646875  0.13864949  0.69981233     1.58000
C2834       C  0.81449192  0.47087722  0.65910349     0.92700
O2835       O  0.99530593  0.13089098  0.72485354    -0.81000
H2836       H  0.91769218  0.00446547  0.68163933    -0.06300
C2837       C  0.84987079  0.06775371  0.65992650     0.87600
O2838       O  0.95941607  0.09005995  0.62444393    -0.75500
O2839       O  0.92605553  0.09524563  0.70749033    -0.88200
O2840       O  0.82637921  0.48300535  0.67722979    -0.81100
C2841       C  0.86797115  0.01227901  0.74042568     0.92800
C2842       C  0.99299803  0.11221400  0.73945748     0.92600
Mg2843     Mg  0.86868622  0.02690499  0.63530268     1.58000
O2844       O  0.83798403  0.03559087  0.61268294    -0.81000
O2845       O  0.89707963  0.01204994  0.65614502    -0.75200
O2846       O  0.89661276  0.03340040  0.73937926    -0.81100
O2847       O  0.51226406  0.18515344  0.69176950    -0.82800
O2848       O  0.93875248  0.12946441  0.59521704    -0.81100
C2849       C  0.90503629  0.01536880  0.67575915     0.87100
O2850       O  0.90929869  0.07001597  0.62800225    -0.88200
O2851       O  0.85996886  0.04970593  0.66189199    -0.88300
O2852       O  0.86237904  0.09056737  0.64715302    -0.75400
Mg2853     Mg  0.93399178  0.05689045  0.71285477     1.58000
O2854       O  0.84970623  0.00566060  0.72452211    -0.82800
H2855       H  0.00609745  0.10179060  0.66576602    -0.06500
O2856       O  0.93625419  0.13386428  0.64656717    -0.88000
H2857       H  0.91822220  0.16106390  0.65283928    -0.06300
H2858       H  0.92784465  0.04872036  0.61140748    -0.06500
C2859       C  0.93077313  0.15010789  0.65882324     0.87100
C2860       C  0.98631760  0.09822409  0.67530416     0.87600
C2861       C  0.93177443  0.06871053  0.62074045     0.87700
H2862       H  0.83034396  0.06444309  0.66965834    -0.06500
O2863       O  0.87579796  0.07512532  0.71016519    -0.75500
Mg2864     Mg  0.90201925  0.10826589  0.62223312     1.58000
H2865       H  0.90687454  0.11599000  0.72401031    -0.06500
C2866       C  0.52472305  0.19853894  0.67426267     0.92700
O2867       O  0.98525885  0.16082208  0.60926073    -0.82700
C2868       C  0.96599685  0.15294640  0.59370807     0.92700
O2869       O  0.97065006  0.08416917  0.73924425    -0.82700
Mg2870     Mg  0.85454299  0.02841518  0.69250332     1.58200
O2871       O  0.01152329  0.18485372  0.65684092    -0.81000
O2872       O  0.82612487  0.48457175  0.64156120    -0.82700
O2873       O  0.85945294  0.30313013  0.66306774    -0.88300
C2874       C  0.92317028  0.35870831  0.61887485     0.87700
Mg2875     Mg  0.85610425  0.32080805  0.69381880     1.58100
O2876       O  0.93822069  0.30508846  0.64509229    -0.88100
O2877       O  0.86380675  0.26602717  0.64780101    -0.75400
C2878       C  0.99695559  0.39335492  0.73428024     0.92800
O2879       O  0.88548969  0.37604473  0.65495159    -0.75200
O2880       O  0.97184825  0.39433737  0.73379432    -0.82700
Mg2881     Mg  0.85945407  0.33007665  0.63628672     1.58000
C2882       C  0.53167035  0.34159621  0.66695327     0.92700
O2883       O  0.83061231  0.28797913  0.61441017    -0.81000
H2884       H  0.92670928  0.26183181  0.65297139    -0.06300
C2885       C  0.98503935  0.39404992  0.66965290     0.87600
O2886       O  0.88426180  0.30144979  0.70989185    -0.75500
O2887       O  0.90278247  0.33395078  0.62644045    -0.88200
O2888       O  0.01449393  0.33377861  0.64948663    -0.81100
C2889       C  0.96276793  0.31260078  0.59146948     0.92800
C2890       C  0.83796447  0.27880995  0.59746075     0.92600
Mg2891     Mg  0.97616684  0.33944827  0.69564797     1.58000
O2892       O  0.00437848  0.38063306  0.71924905    -0.81000
O2893       O  0.94945275  0.29376138  0.67641053    -0.75200
O2894       O  0.93517725  0.30772971  0.59332992    -0.81100
O2895       O  0.81362661  0.32489458  0.64732379    -0.82800
O2896       O  0.90012538  0.36732097  0.73734047    -0.81100
C2897       C  0.93773132  0.28590378  0.65775487     0.87100
O2898       O  0.93310744  0.33650471  0.70556836    -0.88200
O2899       O  0.97736352  0.36645277  0.66838714    -0.88300
O2900       O  0.97175675  0.40331859  0.68274927    -0.75400
Mg2901     Mg  0.90109883  0.29051501  0.62162414     1.58000
O2902       O  0.98265846  0.32671629  0.60615809    -0.82800
H2903       H  0.83333656  0.25890181  0.67197353    -0.06500
O2904       O  0.89726225  0.36436113  0.68588902    -0.88000
H2905       H  0.90772303  0.40753978  0.67869477    -0.06300
H2906       H  0.92009942  0.29779390  0.72222011    -0.06500
C2907       C  0.89714927  0.38362207  0.67360527     0.87100
C2908       C  0.85123422  0.27540897  0.66142732     0.87600
C2909       C  0.91300618  0.31163689  0.71315176     0.87700
H2910       H  0.00300145  0.41054499  0.65913738    -0.06500
O2911       O  0.95189556  0.36800653  0.62161085    -0.75500
Mg2912     Mg  0.93431963  0.38030459  0.70899766     1.58000
H2913       H  0.91642243  0.37303884  0.61007520    -0.06500
C2914       C  0.80530984  0.32962899  0.66558422     0.92700
O2915       O  0.85186393  0.34061270  0.72492347    -0.82700
C2916       C  0.87109596  0.35747958  0.73918715     0.92700
O2917       O  0.86328783  0.27814762  0.59657814    -0.82700
Mg2918     Mg  0.97996036  0.34802879  0.63745771     1.58200
O2919       O  0.82173721  0.33488222  0.68224437    -0.81000
O2920       O  0.52224980  0.34607211  0.68500296    -0.82700
C2921       C  0.79314868  0.38347854  0.84051227     0.02300
C2922       C  0.80074319  0.41403564  0.84608321     0.02300
C2923       C  0.81805426  0.43752592  0.83095741    -0.18300
C2924       C  0.82850250  0.43116607  0.81151308     0.02300
C2925       C  0.82204986  0.40056433  0.80718801     0.02300
C2926       C  0.80415795  0.37718575  0.82170763    -0.18300
H2927       H  0.79965647  0.35383015  0.81867769     0.04300
H2928       H  0.82405124  0.46120743  0.83432517     0.04300
C2929       C  0.51060529  0.24251233  0.47932820     0.02300
C2930       C  0.51355314  0.27222271  0.48158825     0.02300
C2931       C  0.50901181  0.28209281  0.50161071    -0.18300
C2932       C  0.00203021  0.26356537  0.52111151     0.02300
C2933       C  0.00387309  0.23616760  0.51989114     0.02300
C2934       C  0.50565962  0.22472010  0.49795845    -0.18300
H2935       H  0.50552101  0.20300364  0.49680968     0.04300
H2936       H  0.50991429  0.30424936  0.50289906     0.04300
C2937       C  0.73152605  0.23095214  0.48086926     0.02300
C2938       C  0.75479313  0.26266389  0.48192730     0.02300
C2939       C  0.77188852  0.27326623  0.50132224    -0.18300
C2940       C  0.76694996  0.25297379  0.51845255     0.02300
C2941       C  0.74309595  0.22166513  0.51692267     0.02300
C2942       C  0.72583244  0.21095173  0.49803685    -0.18300
H2943       H  0.70780094  0.18688181  0.49664630     0.04300
H2944       H  0.78921506  0.29747523  0.50324738     0.04300
C2945       C  0.73592720  0.48144560  0.48152155     0.02300
C2946       C  0.76808702  0.49138766  0.48393766     0.02300
C2947       C  0.78331800  0.50622618  0.50289723    -0.18300
C2948       C  0.76770802  0.00964620  0.52011740     0.02300
C2949       C  0.73587004  0.00080293  0.51840493     0.02300
C2950       C  0.71999868  0.48618706  0.49872884    -0.18300
H2951       H  0.69556609  0.47902434  0.49698801     0.04300
H2952       H  0.80795575  0.51411036  0.50455118     0.04300
O2953       O  0.53806473  0.48435136  0.99125920    -0.88300
C2954       C  0.96500143  0.44651247  0.03291757     0.87700
Mg2955     Mg  0.57247742  0.03268177  0.99433938     1.58100
O2956       O  0.94620165  0.46225674  0.98160302    -0.88100
O2957       O  0.00420747  0.45464067  0.96743953    -0.75400
C2958       C  0.49717463  0.11140622  0.00280541     0.92800
O2959       O  0.53794642  0.49747862  0.04212639    -0.75200
O2960       O  0.52061053  0.11147803  0.01126255    -0.82700
Mg2961     Mg  0.52693009  0.45619228  0.01963963     1.58000
C2962       C  0.88987076  0.50556671  0.98083892     0.92700
O2963       O  0.51696038  0.41154518  0.00357413    -0.81000
H2964       H  0.94183648  0.45548741  0.94987137    -0.06300
C2965       C  0.95821780  0.02512197  0.02686497     0.87600
O2966       O  0.54924282  0.04772388  0.96888668    -0.75500
O2967       O  0.97958050  0.44726566  0.01658936    -0.88200
O2968       O  0.88920409  0.48036720  0.98570102    -0.81100
C2969       C  0.88378588  0.39250269  0.00155251     0.92800
C2970       C  0.49414120  0.38784153  0.99531120     0.92600
Mg2971     Mg  0.96535789  0.04097787  0.97910484     1.58000
O2972       O  0.97530896  0.08724141  0.99304581    -0.81000
O2973       O  0.95461731  0.99839774  0.95848739    -0.75200
O2974       O  0.90922025  0.39248430  0.99862158    -0.81100
O2975       O  0.57734345  0.46641057  0.02020178    -0.82800
O2976       O  0.58232937  0.10745503  0.00462924    -0.81100
C2977       C  0.94693541  0.47135799  0.96315553     0.87100
O2978       O  0.51285115  0.05299686  0.98491825    -0.88200
O2979       O  0.95336810  0.01439541  0.00851518    -0.88300
O2980       O  0.48712438  0.04581622  0.03417943    -0.75400
Mg2981     Mg  0.95826786  0.42645198  0.98573938     1.58000
O2982       O  0.88262892  0.41727080  0.00389175    -0.82800
H2983       H  0.55087875  0.48426431  0.96082180    -0.06500
O2984       O  0.54502050  0.03687400  0.01990666    -0.88000
H2985       H  0.55158416  0.04361570  0.05156615    -0.06300
H2986       H  0.52275265  0.06237608  0.95380367    -0.06500
C2987       C  0.54604717  0.02792691  0.03811493     0.87100
C2988       C  0.53235786  0.47483469  0.97258599     0.87600
C2989       C  0.52808387  0.05499263  0.96868077     0.87700
H2990       H  0.93912227  0.01662904  0.03816521    -0.06500
O2991       O  0.94396530  0.45398359  0.03257638    -0.75500
Mg2992     Mg  0.53308049  0.07325053  0.01620358     1.58000
H2993       H  0.97079752  0.44002380  0.04798931    -0.06500
C2994       C  0.60255294  0.49214966  0.01899364     0.92700
O2995       O  0.60895805  0.08267577  0.99964963    -0.82700
C2996       C  0.60780038  0.10727493  0.00283108     0.92700
O2997       O  0.97076994  0.38852431  0.99035349    -0.82700
Mg2998     Mg  0.91962181  0.46780696  0.00707641     1.58200
O2999       O  0.60292544  0.02007764  0.01560060    -0.81000
O3000       O  0.91498860  0.02993762  0.97620980    -0.82700
O3001       O  0.79241983  0.18287667  0.32370624    -0.88300
C3002       C  0.86324287  0.22339584  0.36805890     0.87700
Mg3003     Mg  0.75713177  0.13442010  0.32481974     1.58100
O3004       O  0.88448832  0.20707660  0.31725196    -0.88100
O3005       O  0.82722266  0.21570190  0.30160500    -0.75400
C3006       C  0.83214245  0.05749557  0.33843020     0.92800
O3007       O  0.78756649  0.16624832  0.37422413    -0.75200
O3008       O  0.80773994  0.05676368  0.34568280    -0.82700
Mg3009     Mg  0.80043237  0.20881033  0.35350947     1.58000
C3010       C  0.94255231  0.16705528  0.31788678     0.92700
O3011       O  0.81292383  0.25626107  0.33977461    -0.81000
H3012       H  0.89062658  0.21404788  0.28563762    -0.06300
C3013       C  0.86772413  0.14343433  0.36386481     0.87600
O3014       O  0.78318908  0.12066638  0.30077143    -0.75500
O3015       O  0.84931613  0.22150709  0.35125702    -0.88200
O3016       O  0.94209657  0.19101446  0.32442517    -0.81100
C3017       C  0.94683644  0.27648099  0.33667209     0.92800
C3018       C  0.83684397  0.28090209  0.33328111     0.92600
Mg3019     Mg  0.86618857  0.12820861  0.31596496     1.58000
O3020       O  0.85498741  0.08190160  0.33068738    -0.81000
O3021       O  0.87788765  0.17039364  0.29505144    -0.75200
O3022       O  0.92147331  0.27628365  0.33315166    -0.81100
O3023       O  0.74850196  0.19549715  0.35351518    -0.82800
O3024       O  0.74665010  0.06076211  0.33655548    -0.81100
C3025       C  0.88491889  0.19813635  0.29884232     0.87100
O3026       O  0.81779303  0.11537791  0.31887888    -0.88200
O3027       O  0.87486240  0.15442434  0.34568599    -0.88300
O3028       O  0.84002992  0.12311757  0.36849161    -0.75400
Mg3029     Mg  0.87242738  0.24279706  0.32086779     1.58000
O3030       O  0.94780389  0.25214270  0.34086792    -0.82800
H3031       H  0.78212219  0.18683832  0.29335094    -0.06500
O3032       O  0.78189713  0.12981778  0.35211519    -0.88000
H3033       H  0.77423624  0.12244785  0.38359725    -0.06300
H3034       H  0.81125064  0.10632212  0.28746504    -0.06500
C3035       C  0.78061868  0.13853877  0.37043928     0.87100
C3036       C  0.79957659  0.19485392  0.30582673     0.87600
C3037       C  0.80425526  0.11340867  0.30188647     0.87700
H3038       H  0.88524433  0.15213462  0.37631171    -0.06500
O3039       O  0.88465520  0.21651718  0.36866462    -0.75500
Mg3040     Mg  0.79500593  0.09473201  0.34940552     1.58000
H3041       H  0.85656720  0.23037170  0.38267508    -0.06500
C3042       C  0.72364919  0.17014920  0.34903372     0.92700
O3043       O  0.71945037  0.08340500  0.32704930    -0.82700
C3044       C  0.72116522  0.05943119  0.33151882     0.92700
O3045       O  0.86103756  0.28121418  0.32608476    -0.82700
Mg3046     Mg  0.90997598  0.20233905  0.34396203     1.58200
O3047       O  0.72409712  0.14583812  0.34328030    -0.81000
O3048       O  0.91768768  0.14147138  0.31418984    -0.82700
O3049       O  0.70470246  0.31928011  0.64876006    -0.88300
C3050       C  0.64261493  0.27684655  0.69782442     0.87700
Mg3051     Mg  0.74251988  0.36707162  0.65030832     1.58100
O3052       O  0.61411446  0.29726029  0.65239509    -0.88100
O3053       O  0.66639236  0.28692925  0.62843849    -0.75400
C3054       C  0.67874492  0.44883773  0.67994548     0.92800
O3055       O  0.71757001  0.33171992  0.69916734    -0.75200
O3056       O  0.70425047  0.44897950  0.68242915    -0.82700
Mg3057     Mg  0.70071631  0.29051772  0.67571419     1.58000
C3058       C  0.56135505  0.34162273  0.66587589     0.92700
O3059       O  0.68592645  0.24465243  0.65718626    -0.81000
H3060       H  0.60415832  0.29437290  0.62112116    -0.06300
C3061       C  0.64323185  0.36088863  0.70237721     0.87600
O3062       O  0.71489963  0.38395494  0.63071329    -0.75500
O3063       O  0.65275381  0.27888716  0.67944078    -0.88200
O3064       O  0.56109640  0.31636321  0.66918800    -0.81100
C3065       C  0.55412285  0.22795162  0.67468350     0.92800
C3066       C  0.66036126  0.21945451  0.65398187     0.92600
Mg3067     Mg  0.63723837  0.37856124  0.65745228     1.58000
O3068       O  0.65299457  0.42411064  0.67615570    -0.81000
O3069       O  0.62018524  0.33717728  0.63406953    -0.75200
O3070       O  0.57797201  0.22774374  0.66724728    -0.81100
O3071       O  0.75094265  0.30281895  0.67015759    -0.82800
O3072       O  0.76114476  0.44158075  0.66709142    -0.81100
C3073       C  0.61221508  0.30873407  0.63536330     0.87100
O3074       O  0.68532869  0.39004286  0.65393857    -0.88200
O3075       O  0.63282948  0.34985926  0.68452733    -0.88300
O3076       O  0.67154514  0.38154201  0.70486138    -0.75400
Mg3077     Mg  0.62439341  0.25964230  0.65094172     1.58000
O3078       O  0.55479748  0.25260613  0.68085873    -0.82800
H3079       H  0.70976064  0.31654749  0.61711701    -0.06500
O3080       O  0.72347537  0.37152544  0.68082900    -0.88000
H3081       H  0.73364904  0.37454548  0.71206849    -0.06300
H3082       H  0.68654871  0.40089979  0.62299423    -0.06500
C3083       C  0.72553192  0.36014014  0.69784774     0.87100
C3084       C  0.69453202  0.30803618  0.63091672     0.87600
C3085       C  0.69535671  0.39239118  0.63548524     0.87700
H3086       H  0.62805833  0.35247864  0.71620811    -0.06500
O3087       O  0.62294130  0.28524288  0.70229995    -0.75500
Mg3088     Mg  0.71385039  0.40892261  0.68266422     1.58000
H3089       H  0.65132632  0.26852610  0.71049871    -0.06500
C3090       C  0.77567089  0.32874392  0.66748278     0.92700
O3091       O  0.78335106  0.41680707  0.65207491    -0.82700
C3092       C  0.78469903  0.44147402  0.65896318     0.92700
O3093       O  0.63459428  0.21905390  0.65176747    -0.82700
Mg3094     Mg  0.59507076  0.30224962  0.68297614     1.58200
O3095       O  0.77557640  0.35395553  0.66551502    -0.81000
O3096       O  0.58650238  0.36698791  0.66238502    -0.82700
C3097       C  0.83669628  0.37662500  0.75211582    -0.05800
C3098       C  0.85936345  0.36851302  0.75713064     0.00200
C3099       C  0.87028732  0.37201240  0.77845044    -0.08400
C3100       C  0.85804944  0.38364157  0.79398535    -0.05800
C3101       C  0.83539159  0.39177621  0.78893062     0.00100
C3102       C  0.82380672  0.38737107  0.76770690    -0.08300
C3103       C  0.79751964  0.39256245  0.76054024     0.62100
H3104       H  0.82851286  0.37411706  0.73571015     0.12800
H3105       H  0.86594498  0.38629601  0.81044966     0.12800
C3106       C  0.89402428  0.36280604  0.78493559     0.62300
F3107       F  0.80938411  0.41772354  0.74691786    -0.22900
F3108       F  0.78238508  0.39766492  0.77733787    -0.20200
F3109       F  0.77551409  0.36670903  0.74949013    -0.19900
F3110       F  0.89717360  0.36292380  0.80699511    -0.19900
F3111       F  0.92280435  0.38340364  0.77636092    -0.20300
F3112       F  0.88482273  0.33322674  0.77754507    -0.22900
C3113       C  0.83217186  0.27132332  0.55790064    -0.05800
C3114       C  0.81823939  0.27138897  0.57766764     0.00200
C3115       C  0.78769230  0.26751311  0.57742478    -0.08400
C3116       C  0.77299255  0.26444116  0.55751124    -0.05800
C3117       C  0.78692967  0.26392972  0.53800179     0.00100
C3118       C  0.81713829  0.26768196  0.53810226    -0.08300
C3119       C  0.83321930  0.26725668  0.51737323     0.62100
H3120       H  0.85535168  0.27447789  0.55795330     0.12800
H3121       H  0.74971778  0.26117185  0.55696474     0.12800
C3122       C  0.76995665  0.26585268  0.59780104     0.62300
F3123       F  0.86224043  0.27060427  0.52106835    -0.22900
F3124       F  0.83732933  0.29137657  0.50440585    -0.20200
F3125       F  0.81543664  0.23955476  0.50659504    -0.19900
F3126       F  0.78332754  0.29471879  0.60744945    -0.19900
F3127       F  0.77032423  0.24459229  0.61178145    -0.20300
F3128       F  0.73907608  0.25661744  0.59369303    -0.22900
C3129       C  0.00354279  0.30871770  0.57073452    -0.05800
C3130       C  0.97193757  0.30027504  0.57253777     0.00200
C3131       C  0.95029599  0.27842222  0.55752652    -0.08400
C3132       C  0.96116635  0.26526469  0.54214260    -0.05800
C3133       C  0.99260826  0.27371577  0.54065186     0.00100
C3134       C  0.51484475  0.29440644  0.55481008    -0.08300
C3135       C  0.54857892  0.30224796  0.55399519     0.62100
H3136       H  0.52132785  0.32236132  0.58286441     0.12800
H3137       H  0.94529095  0.24891537  0.53041794     0.12800
C3138       C  0.91608193  0.26921838  0.55704700     0.62300
F3139       F  0.56208953  0.31737351  0.53505810    -0.22900
F3140       F  0.55009050  0.27540108  0.55507353    -0.20200
F3141       F  0.56574271  0.32119514  0.57089328    -0.19900
F3142       F  0.91353133  0.29543084  0.55466017    -0.19900
F3143       F  0.90156761  0.25403866  0.57576778    -0.20300
F3144       F  0.90037836  0.24949282  0.54009698    -0.22900
C3145       C  0.88289017  0.48947134  0.77017463    -0.05800
C3146       C  0.86219717  0.49657023  0.75959769     0.00200
C3147       C  0.83157537  0.48463046  0.76783797    -0.08400
C3148       C  0.82249179  0.46476434  0.78562012    -0.05800
C3149       C  0.84248181  0.45592680  0.79510026     0.00100
C3150       C  0.87376314  0.46972473  0.78801908    -0.08300
C3151       C  0.89858749  0.46513562  0.79872638     0.62100
H3152       H  0.90648954  0.49901064  0.76419830     0.12800
H3153       H  0.79889748  0.45459063  0.79167936     0.12800
C3154       C  0.80073464  0.98407613  0.75629690     0.62300
F3155       F  0.92391911  0.49375701  0.80368933    -0.22900
F3156       F  0.90822422  0.44998019  0.78469714    -0.20200
F3157       F  0.88850055  0.44842322  0.81752600    -0.19900
F3158       F  0.79831745  0.47749680  0.73835554    -0.19900
F3159       F  0.81242272  0.01554597  0.75386938    -0.20300
F3160       F  0.77376675  0.97257038  0.76842696    -0.22900
C3161       C  0.79196724  0.00141263  0.55154703    -0.05800
C3162       C  0.78546458  0.02168634  0.54029675     0.00200
C3163       C  0.79771897  0.05256889  0.54769910    -0.08400
C3164       C  0.81500540  0.06153281  0.56685052    -0.05800
C3165       C  0.82134723  0.04113651  0.57827591     0.00100
C3166       C  0.80969871  0.01038973  0.57041748    -0.08300
C3167       C  0.81639641  0.98707660  0.58129349     0.62100
H3168       H  0.78300230  0.97821008  0.54520452     0.12800
H3169       H  0.82447346  0.08512088  0.57261340     0.12800
C3170       C  0.79480640  0.07745743  0.53579723     0.62300
F3171       F  0.80662637  0.96053736  0.56902950    -0.22900
F3172       F  0.80077152  0.97829415  0.60066343    -0.20200
F3173       F  0.84806324  0.99989885  0.58465513    -0.19900
F3174       F  0.77061587  0.58316433  0.54617258    -0.19900
F3175       F  0.78027387  0.06776941  0.51613192    -0.20300
F3176       F  0.82425961  0.10245080  0.53226537    -0.22900
C3177       C  0.96370729  0.19550624  0.54292306    -0.05800
C3178       C  0.99547656  0.21447087  0.53843283     0.00200
C3179       C  0.51506662  0.20480768  0.54555941    -0.08400
C3180       C  0.00687579  0.19137833  0.56899768    -0.05800
C3181       C  0.97500384  0.17235052  0.57368632     0.00100
C3182       C  0.95285649  0.17434722  0.56012668    -0.08300
C3183       C  0.91784018  0.15514650  0.56382580     0.62100
H3184       H  0.94727692  0.19749465  0.53260632     0.12800
H3185       H  0.52127089  0.17742963  0.56971769     0.12800
C3186       C  0.54756225  0.21568758  0.53676821     0.62300
F3187       F  0.90122593  0.16266112  0.54965955    -0.22900
F3188       F  0.91061799  0.16023686  0.58436605    -0.20200
F3189       F  0.90795972  0.12404750  0.56094825    -0.19900
F3190       F  0.54778649  0.19119492  0.52639529    -0.19900
F3191       F  0.56865417  0.22544629  0.55351575    -0.20300
F3192       F  0.55774752  0.24005518  0.52260108    -0.22900
C3193       C  0.52498444  0.43231490  0.78829682    -0.05800
C3194       C  0.53374732  0.41176292  0.79679100     0.00200
C3195       C  0.53162758  0.38735932  0.78377400    -0.08400
C3196       C  0.52029969  0.38426069  0.76271053    -0.05800
C3197       C  0.51115813  0.40459502  0.75427568     0.00100
C3198       C  0.51432599  0.42961941  0.76708616    -0.08300
C3199       C  0.01338790  0.45412896  0.75955490     0.62100
H3200       H  0.52734233  0.45112252  0.79836922     0.12800
H3201       H  0.51718752  0.36489403  0.75291792     0.12800
C3202       C  0.54082606  0.36435296  0.79198215     0.62300
F3203       F  0.03973771  0.48247796  0.76345120    -0.22900
F3204       F  0.98875141  0.45288267  0.77090611    -0.20200
F3205       F  0.00715669  0.45262000  0.73787946    -0.19900
F3206       F  0.51947466  0.34530980  0.80709645    -0.19900
F3207       F  0.57007762  0.37958629  0.80120255    -0.20300
F3208       F  0.54153821  0.34581183  0.77560932    -0.22900
C3209       C  0.56121545  0.16458432  0.77824217    -0.05800
C3210       C  0.55147116  0.14676300  0.79698050     0.00200
C3211       C  0.52470892  0.11678444  0.79601425    -0.08400
C3212       C  0.00735513  0.10722258  0.77711205    -0.05800
C3213       C  0.51708747  0.12444964  0.75781394     0.00100
C3214       C  0.54511228  0.15391629  0.75857404    -0.08300
C3215       C  0.55872817  0.17435430  0.73893548     0.62100
H3216       H  0.58213195  0.18706332  0.77913848     0.12800
H3217       H  0.98639902  0.08474899  0.77727174     0.12800
C3218       C  0.01573129  0.09800090  0.81576012     0.62300
F3219       F  0.58890924  0.19814054  0.74247589    -0.22900
F3220       F  0.54089062  0.18759361  0.73373457    -0.20200
F3221       F  0.55964821  0.15705401  0.72179401    -0.19900
F3222       F  0.50101759  0.10692710  0.83027630    -0.19900
F3223       F  0.53813129  0.09407613  0.82463886    -0.20300
F3224       F  0.99261381  0.06800041  0.81113099    -0.22900
C3225       C  0.60168767  0.45371979  0.78348399    -0.05800
C3226       C  0.59475464  0.46708746  0.80098185     0.00200
C3227       C  0.59768404  0.49663956  0.79856288    -0.08400
C3228       C  0.60650254  0.51119583  0.77839959    -0.05800
C3229       C  0.61192158  0.49712371  0.76046630     0.00100
C3230       C  0.60918120  0.46752434  0.76308978    -0.08300
C3231       C  0.61304110  0.44972752  0.74456550     0.62100
H3232       H  0.59996071  0.43147532  0.78577785     0.12800
H3233       H  0.60978935  0.53417159  0.77667174     0.12800
C3234       C  0.59171557  0.51288945  0.81712549     0.62300
F3235       F  0.60321911  0.41930344  0.74996530    -0.22900
F3236       F  0.65854555  0.97376918  0.74394283    -0.20200
F3237       F  0.59542996  0.44916519  0.72722109    -0.19900
F3238       F  0.61407440  0.52028005  0.83272849    -0.19900
F3239       F  0.56255037  0.49391956  0.82580784    -0.20300
F3240       F  0.59306630  0.54009806  0.81077703    -0.22900
C3241       C  0.65223692  0.17175204  0.76591070    -0.05800
C3242       C  0.63585106  0.14197259  0.75699491     0.00200
C3243       C  0.60776940  0.11938235  0.76683622    -0.08400
C3244       C  0.59913106  0.12627014  0.78657854    -0.05800
C3245       C  0.61546292  0.15581951  0.79568478     0.00100
C3246       C  0.64222657  0.17932207  0.78502562    -0.08300
C3247       C  0.66040266  0.21210317  0.79371342     0.62100
H3248       H  0.67322395  0.18891518  0.75793521     0.12800
H3249       H  0.57889485  0.10859862  0.79489102     0.12800
C3250       C  0.58601862  0.08844860  0.75633547     0.62300
F3251       F  0.68222499  0.23209072  0.77911424    -0.22900
F3252       F  0.67611917  0.21234673  0.81195555    -0.20200
F3253       F  0.64045825  0.22318679  0.79846729    -0.19900
F3254       F  0.59825220  0.06920940  0.75832524    -0.19900
F3255       F  0.58217330  0.09244208  0.73485070    -0.20300
F3256       F  0.55681677  0.07405779  0.76581186    -0.22900
C3257       C  0.70033154  0.99350847  0.57395381    -0.05800
C3258       C  0.69608564  0.01939476  0.57423934     0.00200
C3259       C  0.69957565  0.03536684  0.55461207    -0.08400
C3260       C  0.71143920  0.02761837  0.53650424    -0.05800
C3261       C  0.71857009  0.00377461  0.53699891     0.00100
C3262       C  0.71063217  0.98483055  0.55548172    -0.08300
C3263       C  0.71167052  0.95493296  0.55655113     0.62100
H3264       H  0.69624556  0.98015709  0.58847762     0.12800
H3265       H  0.71636425  0.04100839  0.52192906     0.12800
C3266       C  0.69062758  0.06024521  0.55236136     0.62300
F3267       F  0.73186952  0.95717437  0.57260786    -0.22900
F3268       F  0.72087085  0.94753057  0.53752100    -0.20200
F3269       F  0.68469552  0.42970890  0.56270213    -0.19900
F3270       F  0.71281729  0.08741675  0.56192552    -0.19900
F3271       F  0.66191387  0.05051189  0.56180831    -0.20300
F3272       F  0.68840726  0.06652309  0.53103527    -0.22900
C3273       C  0.70500475  0.17751925  0.56774638    -0.05800
C3274       C  0.72763661  0.17083825  0.57531212     0.00200
C3275       C  0.75446295  0.17886824  0.56280604    -0.08400
C3276       C  0.75748816  0.19327252  0.54289791    -0.05800
C3277       C  0.73514323  0.20061669  0.53560317     0.00100
C3278       C  0.70811561  0.19215338  0.54804344    -0.08300
C3279       C  0.68258936  0.19849090  0.54071966     0.62100
H3280       H  0.68426561  0.17050486  0.57731475     0.12800
H3281       H  0.77789170  0.19983334  0.53312157     0.12800
C3282       C  0.78027167  0.17347056  0.57072019     0.62300
F3283       F  0.66008997  0.19113166  0.55637782    -0.22900
F3284       F  0.66798937  0.18071876  0.52280557    -0.20200
F3285       F  0.69500279  0.22946470  0.53581731    -0.19900
F3286       F  0.77056005  0.14223854  0.56979362    -0.19900
F3287       F  0.78795107  0.18385875  0.59166157    -0.20300
F3288       F  0.80695310  0.18911953  0.55838566    -0.22900
C3289       C  0.54468306  0.35678446  0.86928172    -0.05800
C3290       C  0.53898165  0.38149139  0.87185769     0.00200
C3291       C  0.51913323  0.38027299  0.88859402    -0.08400
C3292       C  0.50790127  0.35564303  0.90332088    -0.05800
C3293       C  0.51564160  0.33193762  0.90200629     0.00100
C3294       C  0.53361164  0.33205984  0.88400602    -0.08300
C3295       C  0.54177471  0.30687099  0.88016476     0.62100
H3296       H  0.55881632  0.35757151  0.85573457     0.12800
H3297       H  0.99387566  0.35524071  0.91469545     0.12800
C3298       C  0.51016928  0.40508008  0.89116771     0.62300
F3299       F  0.55571634  0.30971618  0.86035598    -0.22900
F3300       F  0.51506990  0.27810347  0.88076696    -0.20200
F3301       F  0.56244154  0.30873332  0.89567681    -0.19900
F3302       F  0.48750643  0.39744459  0.90674486    -0.19900
F3303       F  0.49861825  0.40911016  0.87205288    -0.20300
F3304       F  0.03303558  0.43269068  0.88946638    -0.22900
C3305       C  0.53681345  0.17777349  0.90412602    -0.05800
C3306       C  0.55585330  0.20875791  0.91059134     0.00200
C3307       C  0.58351221  0.22775262  0.89891319    -0.08400
C3308       C  0.59017024  0.21536813  0.88058409    -0.05800
C3309       C  0.57103127  0.18441266  0.87404245     0.00100
C3310       C  0.54427983  0.16493936  0.88647847    -0.08300
C3311       C  0.52311271  0.13054239  0.88245703     0.62100
H3312       H  0.51571266  0.16316531  0.91310514     0.12800
H3313       H  0.61058412  0.22997296  0.87107544     0.12800
C3314       C  0.60647111  0.26057686  0.90602452     0.62300
F3315       F  0.03059082  0.11762390  0.90116214    -0.22900
F3316       F  0.53490577  0.11853147  0.86754374    -0.20200
F3317       F  0.49441245  0.12531459  0.87549196    -0.19900
F3318       F  0.61325407  0.26088899  0.92756127    -0.19900
F3319       F  0.59395872  0.27947353  0.90273590    -0.20300
F3320       F  0.63417141  0.27279296  0.89469637    -0.22900
C3321       C  0.74647321  0.34554927  0.90164177    -0.05800
C3322       C  0.77495540  0.33653003  0.91286369     0.00200
C3323       C  0.80706479  0.33951264  0.89595409    -0.08400
C3324       C  0.80932433  0.34993647  0.86751164    -0.05800
C3325       C  0.78072761  0.35968962  0.85657634     0.00100
C3326       C  0.74815630  0.35573083  0.87333392    -0.08300
C3327       C  0.72206758  0.35897789  0.86412732     0.62100
H3328       H  0.72687765  0.34217651  0.91128577     0.12800
H3329       H  0.82914531  0.35356576  0.85789664     0.12800
C3330       C  0.82979700  0.33118106  0.90492936     0.62300
F3331       F  0.69450399  0.33137113  0.86673471    -0.22900
F3332       F  0.72684986  0.36577185  0.84251785    -0.20200
F3333       F  0.71972913  0.38213566  0.87472833    -0.19900
F3334       F  0.81400471  0.30101101  0.91220999    -0.19900
F3335       F  0.84581783  0.35087637  0.92175478    -0.20300
F3336       F  0.85081812  0.33377399  0.88930247    -0.22900
C3337       C  0.67748745  0.20882381  0.89268731    -0.05800
C3338       C  0.66605579  0.18754015  0.90966731     0.00200
C3339       C  0.63506060  0.16188714  0.90833970    -0.08400
C3340       C  0.61740451  0.15855797  0.88979391    -0.05800
C3341       C  0.62884334  0.18055632  0.87330292     0.00100
C3342       C  0.65904697  0.20672503  0.87513688    -0.08300
C3343       C  0.67282488  0.23407423  0.85993539     0.62100
H3344       H  0.70080114  0.22870561  0.89363194     0.12800
H3345       H  0.59419339  0.13879860  0.88804492     0.12800
C3346       C  0.61998440  0.13857886  0.92640572     0.62300
F3347       F  0.68184547  0.26098136  0.87156113    -0.22900
F3348       F  0.65230010  0.23230809  0.84434690    -0.20200
F3349       F  0.69888562  0.23617724  0.85015473    -0.19900
F3350       F  0.61911913  0.15356999  0.94494182    -0.19900
F3351       F  0.63666169  0.12359812  0.93003701    -0.20300
F3352       F  0.58965240  0.11618823  0.92162743    -0.22900
C3353       C  0.61043658  0.42394017  0.88556084    -0.05800
C3354       C  0.59919939  0.44308247  0.87830359     0.00200
C3355       C  0.60804808  0.47129960  0.88947528    -0.08400
C3356       C  0.62942796  0.48008593  0.90651017    -0.05800
C3357       C  0.64107178  0.46114528  0.91347331     0.00100
C3358       C  0.63011566  0.43176356  0.90351116    -0.08300
C3359       C  0.63790024  0.40800445  0.91217723     0.62100
H3360       H  0.60422008  0.40289851  0.87673763     0.12800
H3361       H  0.63685345  0.50196464  0.91466279     0.12800
C3362       C  0.59546055  0.49284351  0.88467481     0.62300
F3363       F  0.61961710  0.37914518  0.90285772    -0.22900
F3364       F  0.63261094  0.40476659  0.93407556    -0.20200
F3365       F  0.67061783  0.92116027  0.90833237    -0.19900
F3366       F  0.57213762  0.48126781  0.86944298    -0.19900
F3367       F  0.61952994  0.52095543  0.87765796    -0.20300
F3368       F  0.58325947  0.49783107  0.90329947    -0.22900
C3369       C  0.78057443  0.44393666  0.86652942    -0.05800
C3370       C  0.79070349  0.42206259  0.86720834     0.00200
C3371       C  0.78920179  0.40764267  0.88757123    -0.08400
C3372       C  0.77857443  0.41663318  0.90576679    -0.05800
C3373       C  0.76921155  0.43861601  0.90477857     0.00100
C3374       C  0.77014911  0.45268139  0.88493076    -0.08300
C3375       C  0.76098648  0.47747887  0.88327113     0.62100
H3376       H  0.78017144  0.45383538  0.85123514     0.12800
H3377       H  0.77693244  0.40593814  0.92116357     0.12800
C3378       C  0.79824883  0.38156459  0.89066225     0.62300
F3379       F  0.75619502  0.98196248  0.85858977    -0.22900
F3380       F  0.77153581  0.99753224  0.89234969    -0.20200
F3381       F  0.73008082  0.46532725  0.88894236    -0.19900
F3382       F  0.82796591  0.39897992  0.88103383    -0.19900
F3383       F  0.76552270  0.32712718  0.88068084    -0.20300
F3384       F  0.81068272  0.38884226  0.91172091    -0.22900
C3385       C  0.95531143  0.32153389  0.09700572    -0.05800
C3386       C  0.93672438  0.29104000  0.08928578     0.00200
C3387       C  0.90904402  0.27085757  0.10056762    -0.08400
C3388       C  0.90238769  0.28106776  0.11998160    -0.05800
C3389       C  0.92154491  0.31105677  0.12823700     0.00100
C3390       C  0.94813600  0.33206649  0.11617610    -0.08300
C3391       C  0.96921667  0.36539336  0.12336718     0.62100
H3392       H  0.97633064  0.33690685  0.08825714     0.12800
H3393       H  0.88205698  0.26534284  0.12905957     0.12800
C3394       C  0.88595821  0.23897787  0.09189462     0.62300
F3395       F  0.49324194  0.38449767  0.10477605    -0.22900
F3396       F  0.98732077  0.36624731  0.14042375    -0.20200
F3397       F  0.45690906  0.38219774  0.12722441    -0.19900
F3398       F  0.89792947  0.21940595  0.09390861    -0.19900
F3399       F  0.87991690  0.24107460  0.07050227    -0.20300
F3400       F  0.85791970  0.22595739  0.10286350    -0.22900
C3401       C  0.81280488  0.28686761  0.11244280    -0.05800
C3402       C  0.82421571  0.30949313  0.09624944     0.00200
C3403       C  0.85509760  0.33516673  0.09804338    -0.08400
C3404       C  0.87329691  0.33633384  0.11561834    -0.05800
C3405       C  0.86207356  0.31320034  0.13124690     0.00100
C3406       C  0.83107485  0.28817389  0.12996641    -0.08300
C3407       C  0.81701423  0.26272890  0.14679679     0.62100
H3408       H  0.78920016  0.26767910  0.11124612     0.12800
H3409       H  0.89660468  0.35573001  0.11752172     0.12800
C3410       C  0.86942637  0.36124186  0.08169973     0.62300
F3411       F  0.78851427  0.23839539  0.14028803    -0.22900
F3412       F  0.81221428  0.27415925  0.16577073    -0.20200
F3413       F  0.83654855  0.25100229  0.15059669    -0.19900
F3414       F  0.85109105  0.37480677  0.07974241    -0.19900
F3415       F  0.87212477  0.34976310  0.06203452    -0.20300
F3416       F  0.89893139  0.38431989  0.08765349    -0.22900
C3417       C  0.80597603  0.45718234  0.44816619    -0.05800
C3418       C  0.82166595  0.48089805  0.43296429     0.00200
C3419       C  0.82296815  0.50984400  0.43654237    -0.08400
C3420       C  0.79203781  0.00495452  0.44812441    -0.05800
C3421       C  0.78697920  0.48720958  0.46699353     0.00100
C3422       C  0.78884390  0.45992599  0.46520740    -0.08300
C3423       C  0.77240865  0.43352137  0.48097168     0.62100
H3424       H  0.80582572  0.43554463  0.44610012     0.12800
H3425       H  0.78572935  0.02281216  0.44806794     0.12800
C3426       C  0.81068972  0.01998146  0.41026506     0.62300
F3427       F  0.74067764  0.41982771  0.47817500    -0.22900
F3428       F  0.77997998  0.44447287  0.50178878    -0.20200
F3429       F  0.78069198  0.41101781  0.47805548    -0.19900
F3430       F  0.79579100  0.00045626  0.39308169    -0.19900
F3431       F  0.84195867  0.03893633  0.40568545    -0.20300
F3432       F  0.79771614  0.03878293  0.41283418    -0.22900
C3433       C  0.75383049  0.30490327  0.42942334    -0.05800
C3434       C  0.78541450  0.32611880  0.42722845     0.00200
C3435       C  0.80676548  0.32606899  0.44209874    -0.08400
C3436       C  0.79543276  0.30566040  0.45961402    -0.05800
C3437       C  0.76341122  0.28456790  0.46274821     0.00100
C3438       C  0.74194664  0.28354577  0.44656398    -0.08300
C3439       C  0.70554732  0.25964892  0.44685867     0.62100
H3440       H  0.73844079  0.30455795  0.41699772     0.12800
H3441       H  0.81205889  0.30522951  0.47054666     0.12800
C3442       C  0.84159935  0.34706156  0.43905426     0.62300
F3443       F  0.69431638  0.27799492  0.43743164    -0.22900
F3444       F  0.70146147  0.26753082  0.46798489    -0.20200
F3445       F  0.68100786  0.20517205  0.43672568    -0.19900
F3446       F  0.84871399  0.37763971  0.43862613    -0.19900
F3447       F  0.85072403  0.33983395  0.41989778    -0.20300
F3448       F  0.85859731  0.34384308  0.45539131    -0.22900
C3449       C  0.86411292  0.37762039  0.22369610    -0.05800
C3450       C  0.85258058  0.35731828  0.24126087     0.00200
C3451       C  0.85409858  0.32943810  0.24060343    -0.08400
C3452       C  0.86790026  0.32387504  0.22267928    -0.05800
C3453       C  0.88098342  0.34518946  0.20599860     0.00100
C3454       C  0.87878045  0.37238346  0.20625026    -0.08300
C3455       C  0.89186239  0.39705065  0.18895108     0.62100
H3456       H  0.86286295  0.39872337  0.22387979     0.12800
H3457       H  0.86854062  0.30259588  0.22145157     0.12800
C3458       C  0.84235792  0.30581061  0.25866955     0.62300
F3459       F  0.91197310  0.42523743  0.19838672    -0.22900
F3460       F  0.86765033  0.39882645  0.17942628    -0.20200
F3461       F  0.90824793  0.39181229  0.17308720    -0.19900
F3462       F  0.81116643  0.29536298  0.26255376    -0.19900
F3463       F  0.85958907  0.31912327  0.27703923    -0.20300
F3464       F  0.84513336  0.28016230  0.25376947    -0.22900
C3465       C  0.55223624  0.34159522  0.44437214    -0.05800
C3466       C  0.52990223  0.33283633  0.42796638     0.00200
C3467       C  0.50148966  0.30393295  0.42979066    -0.08400
C3468       C  0.49710438  0.28526638  0.44780314    -0.05800
C3469       C  0.52033557  0.29345777  0.46326297     0.00100
C3470       C  0.54867594  0.32189153  0.46141152    -0.08300
C3471       C  0.57662641  0.33202503  0.47606240     0.62100
H3472       H  0.57392206  0.36342117  0.44321278     0.12800
H3473       H  0.47564140  0.26346970  0.44978298     0.12800
C3474       C  0.47613035  0.29178640  0.41276297     0.62300
F3475       F  0.60299999  0.34091395  0.46369465    -0.22900
F3476       F  0.57379362  0.30896395  0.48963828    -0.20200
F3477       F  0.58085205  0.35708309  0.48826657    -0.19900
F3478       F  0.48777680  0.28789757  0.39351563    -0.19900
F3479       F  0.46528753  0.31229929  0.41020603    -0.20300
F3480       F  0.95455255  0.26100515  0.41708585    -0.22900
C3481       C  0.67541636  0.43116137  0.43914159    -0.05800
C3482       C  0.68705037  0.44982893  0.42069150     0.00200
C3483       C  0.71638310  0.47761069  0.42219493    -0.08400
C3484       C  0.73113752  0.48664965  0.44234051    -0.05800
C3485       C  0.71925353  0.46825442  0.46075794     0.00100
C3486       C  0.69109510  0.43943343  0.45897912    -0.08300
C3487       C  0.67579662  0.41659386  0.47725604     0.62100
H3488       H  0.65319883  0.40983445  0.43832684     0.12800
H3489       H  0.75169874  0.50917578  0.44402327     0.12800
C3490       C  0.73239539  0.49822430  0.40299253     0.62300
F3491       F  0.66855297  0.38728780  0.47039325    -0.22900
F3492       F  0.64855446  0.41598626  0.48309066    -0.20200
F3493       F  0.69434604  0.42346139  0.49520866    -0.19900
F3494       F  0.71691595  0.51366294  0.39712356    -0.19900
F3495       F  0.73290407  0.48052945  0.38596788    -0.20300
F3496       F  0.76295830  0.52027841  0.40751161    -0.22900
C3497       C  0.95583720  0.37981236  0.21161347    -0.05800
C3498       C  0.94274147  0.34841324  0.20583352     0.00200
C3499       C  0.94869098  0.32887272  0.21901044    -0.08400
C3500       C  0.96831164  0.34174599  0.23709464    -0.05800
C3501       C  0.98209486  0.37336918  0.24267768     0.00100
C3502       C  0.97512997  0.39264296  0.22985858    -0.08300
C3503       C  0.48226453  0.42536695  0.24177331     0.62100
H3504       H  0.95075490  0.39436166  0.20157872     0.12800
H3505       H  0.97352744  0.32707768  0.24690428     0.12800
C3506       C  0.93399817  0.29442498  0.21428041     0.62300
F3507       F  0.46456957  0.43602156  0.23176899    -0.22900
F3508       F  0.51334039  0.44705788  0.23901045    -0.20200
F3509       F  0.47507270  0.42257691  0.26342809    -0.19900
F3510       F  0.94399033  0.28983839  0.19460686    -0.19900
F3511       F  0.90195122  0.28080117  0.21399277    -0.20300
F3512       F  0.94176704  0.27944833  0.22958823    -0.22900
C3513       C  0.98332955  0.14610783  0.09739892    -0.05800
C3514       C  0.97132346  0.16637818  0.09524131     0.00200
C3515       C  0.94748777  0.16296900  0.10982867    -0.08400
C3516       C  0.93696583  0.13973652  0.12560964    -0.05800
C3517       C  0.94782949  0.11873818  0.12681121     0.00100
C3518       C  0.97206027  0.12242480  0.11292391    -0.08300
C3519       C  0.98612734  0.10159838  0.11463148     0.62100
H3520       H  0.49509148  0.14408721  0.08207585     0.12800
H3521       H  0.91971286  0.13750518  0.13725412     0.12800
C3522       C  0.93191060  0.18251436  0.10854566     0.62300
F3523       F  0.45103592  0.06674537  0.10418517    -0.22900
F3524       F  0.00024168  0.10570457  0.13440164    -0.20200
F3525       F  0.00831045  0.10790722  0.09891782    -0.19900
F3526       F  0.91754450  0.17792625  0.08881336    -0.19900
F3527       F  0.95379406  0.21345892  0.11135813    -0.20300
F3528       F  0.90929791  0.17475251  0.12418586    -0.22900
C3529       C  0.86334887  0.02315172  0.09150995    -0.05800
C3530       C  0.84908947  0.04009823  0.08505941     0.00200
C3531       C  0.85475512  0.06647125  0.09773261    -0.08400
C3532       C  0.87268314  0.07341155  0.11662075    -0.05800
C3533       C  0.88741887  0.05696527  0.12277554     0.00100
C3534       C  0.88256843  0.03115071  0.10992785    -0.08300
C3535       C  0.89692445  0.01111402  0.11446063     0.62100
H3536       H  0.85886346  0.50114003  0.08366747     0.12800
H3537       H  0.87524859  0.09200496  0.12697989     0.12800
C3538       C  0.84314842  0.08833498  0.09132937     0.62300
F3539       F  0.87384497  0.48080474  0.12144320    -0.22900
F3540       F  0.91649950  0.02089493  0.13196418    -0.20200
F3541       F  0.91397173  0.01132016  0.09676278    -0.19900
F3542       F  0.81119959  0.07352467  0.09323864    -0.19900
F3543       F  0.85181858  0.09803439  0.07041568    -0.20300
F3544       F  0.85532511  0.11453604  0.10421821    -0.22900
C3545       C  0.87994044  0.04359684  0.21497430    -0.05800
C3546       C  0.89893514  0.03833625  0.20082508     0.00200
C3547       C  0.90939734  0.01781268  0.20697259    -0.08400
C3548       C  0.90208152  0.00477083  0.22752493    -0.05800
C3549       C  0.88362205  0.01030551  0.24211638     0.00100
C3550       C  0.87152433  0.02956261  0.23542552    -0.08300
C3551       C  0.84913916  0.03473985  0.24921146     0.62100
H3552       H  0.87210907  0.05930600  0.20989938     0.12800
H3553       H  0.91069712  0.98943501  0.23201876     0.12800
C3554       C  0.92733900  0.00772274  0.19243948     0.62300
F3555       F  0.83869215  0.05226025  0.23875732    -0.22900
F3556       F  0.86379579  0.05026709  0.26786537    -0.20200
F3557       F  0.83550370  0.51533542  0.25674017    -0.19900
F3558       F  0.95458715  0.01347688  0.20243792    -0.19900
F3559       F  0.93491855  0.02225985  0.17280374    -0.20300
F3560       F  0.90921260  0.97630687  0.18877234    -0.22900
C3561       C  0.68352728  0.13712327  0.12722272    -0.05800
C3562       C  0.70815475  0.13515080  0.13653226     0.00200
C3563       C  0.73794917  0.15035989  0.12679203    -0.08400
C3564       C  0.74097355  0.16366429  0.10656016    -0.05800
C3565       C  0.71569854  0.16357290  0.09634066     0.00100
C3566       C  0.68682505  0.15152662  0.10733907    -0.08300
C3567       C  0.65983671  0.15449108  0.09862966     0.62100
H3568       H  0.66109004  0.12574599  0.13518641     0.12800
H3569       H  0.76353901  0.17454560  0.09872202     0.12800
C3570       C  0.76713258  0.15340393  0.13696508     0.62300
F3571       F  0.63555857  0.14424370  0.11321578    -0.22900
F3572       F  0.64836272  0.13705077  0.08011682    -0.20200
F3573       F  0.66976880  0.18520980  0.09423128    -0.19900
F3574       F  0.77858702  0.13854623  0.12425206    -0.19900
F3575       F  0.76214412  0.14136299  0.15744109    -0.20300
F3576       F  0.78958593  0.18434957  0.13829900    -0.22900
C3577       C  0.74146319  0.06613041  0.10622948    -0.05800
C3578       C  0.72672025  0.06881106  0.08787099     0.00200
C3579       C  0.70224944  0.07556394  0.09032692    -0.08400
C3580       C  0.69275016  0.07782044  0.11119780    -0.05800
C3581       C  0.70886721  0.07707980  0.12950230     0.00100
C3582       C  0.73391114  0.07117460  0.12695960    -0.08300
C3583       C  0.75386465  0.06987922  0.14495494     0.62100
H3584       H  0.75906057  0.05952344  0.10448232     0.12800
H3585       H  0.67282515  0.08092414  0.11340277     0.12800
C3586       C  0.68685453  0.08158917  0.07132446     0.62300
F3587       F  0.78502500  0.08847762  0.13982286    -0.22900
F3588       F  0.74770030  0.03972165  0.14700379    -0.20200
F3589       F  0.74918693  0.07987498  0.16453383    -0.19900
F3590       F  0.66808646  0.05444323  0.06026353    -0.19900
F3591       F  0.70946266  0.10284691  0.05771649    -0.20300
F3592       F  0.66827235  0.09358431  0.07779097    -0.22900
C3593       C  0.64193240  0.01738180  0.20109111    -0.05800
C3594       C  0.67088440  0.04437847  0.20372518     0.00200
C3595       C  0.68892207  0.04781723  0.22208075    -0.08400
C3596       C  0.67558312  0.02591975  0.23845717    -0.05800
C3597       C  0.64750545  0.49572354  0.23662014     0.00100
C3598       C  0.63051188  0.49265856  0.21753752    -0.08300
C3599       C  0.59862097  0.46485414  0.21310945     0.62100
H3600       H  0.62898175  0.01493007  0.18654909     0.12800
H3601       H  0.68910353  0.02982984  0.25294161     0.12800
C3602       C  0.72222131  0.07375721  0.22529786     0.62300
F3603       F  0.58985173  0.46384368  0.19191879    -0.22900
F3604       F  0.57659609  0.46636559  0.22592211    -0.20200
F3605       F  0.59889462  0.43773465  0.21715249    -0.19900
F3606       F  0.72306088  0.09307619  0.24162063    -0.19900
F3607       F  0.73515002  0.09109723  0.20706234    -0.20300
F3608       F  0.74054808  0.06124507  0.23105158    -0.22900
C3609       C  0.49696065  0.19345035  0.42819367    -0.05800
C3610       C  0.52419370  0.21260316  0.41667376     0.00200
C3611       C  0.54542982  0.24239793  0.42495397    -0.08400
C3612       C  0.54115672  0.24996206  0.44591657    -0.05800
C3613       C  0.51429780  0.23078564  0.45787049     0.00100
C3614       C  0.49106016  0.20246998  0.44843586    -0.08300
C3615       C  0.96344859  0.18184472  0.46402340     0.62100
H3616       H  0.48061223  0.17104792  0.42144068     0.12800
H3617       H  0.55880552  0.27147473  0.45299470     0.12800
C3618       C  0.57146856  0.26701479  0.41130269     0.62300
F3619       F  0.43850304  0.16057505  0.44498687    -0.22900
F3620       F  0.44783099  0.19927120  0.46754579    -0.20200
F3621       F  0.96887890  0.16716158  0.48077833    -0.19900
F3622       F  0.56017348  0.26776606  0.39117502    -0.19900
F3623       F  0.59553092  0.26082943  0.40918056    -0.20300
F3624       F  0.58343203  0.29623782  0.42031934    -0.22900
C3625       C  0.70944231  0.23715250  0.41392862    -0.05800
C3626       C  0.67072278  0.23254259  0.41771540     0.00200
C3627       C  0.65187486  0.22218005  0.44455546    -0.08400
C3628       C  0.67148164  0.21462268  0.46685926    -0.05800
C3629       C  0.71078480  0.21990022  0.46269383     0.00100
C3630       C  0.72889867  0.22940416  0.43588646    -0.08300
C3631       C  0.75838771  0.22910543  0.43106977     0.62100
H3632       H  0.71966482  0.24168547  0.39818980     0.12800
H3633       H  0.66156709  0.21059481  0.48302963     0.12800
C3634       C  0.62064628  0.21915838  0.44823904     0.62300
F3635       F  0.75185274  0.20545808  0.41665715    -0.22900
F3636       F  0.77067227  0.22418330  0.44949026    -0.20200
F3637       F  0.77996653  0.25690431  0.42203026    -0.19900
F3638       F  0.61130452  0.21067745  0.46923164    -0.19900
F3639       F  0.59890528  0.19683231  0.43470894    -0.20300
F3640       F  0.62242597  0.24725594  0.44439311    -0.22900
C3641       C  0.98141007  0.08416242  0.20346389    -0.05800
C3642       C  0.95952083  0.09398284  0.20211864     0.00200
C3643       C  0.95486210  0.10872057  0.22007653    -0.08400
C3644       C  0.97062003  0.11081476  0.23930741    -0.05800
C3645       C  0.99206031  0.10008863  0.24112280     0.00100
C3646       C  0.99802372  0.08710890  0.22247230    -0.08300
C3647       C  0.51959713  0.06965171  0.22385274     0.62100
H3648       H  0.98516453  0.07378164  0.18928921     0.12800
H3649       H  0.96664652  0.12200600  0.25294284     0.12800
C3650       C  0.93474158  0.12378153  0.21976569     0.62300
F3651       F  0.51702946  0.05221017  0.20579984    -0.22900
F3652       F  0.51180357  0.05039378  0.24146268    -0.20200
F3653       F  0.55021335  0.09322109  0.22528899    -0.19900
F3654       F  0.91196139  0.11062717  0.23538645    -0.19900
F3655       F  0.92040875  0.12096885  0.20025571    -0.20300
F3656       F  0.95322509  0.15503349  0.22426148    -0.22900
C3657       C  0.64388680  0.08489682  0.22083337    -0.05800
C3658       C  0.67280397  0.10587308  0.21173055     0.00200
C3659       C  0.69090331  0.13548735  0.22164039    -0.08400
C3660       C  0.67783946  0.14386430  0.23871680    -0.05800
C3661       C  0.64864555  0.12299070  0.24743845     0.00100
C3662       C  0.63241656  0.09222958  0.23929863    -0.08300
C3663       C  0.60408413  0.06663001  0.25059625     0.62100
H3664       H  0.62973111  0.06270669  0.21313663     0.12800
H3665       H  0.69075115  0.16699086  0.24548950     0.12800
C3666       C  0.72372812  0.15918864  0.21461060     0.62300
F3667       F  0.59607752  0.03767208  0.24244461    -0.22900
F3668       F  0.57884755  0.07085896  0.24816700    -0.20200
F3669       F  0.61035116  0.06675823  0.27221505    -0.19900
F3670       F  0.72258752  0.18055515  0.20117882    -0.19900
F3671       F  0.73857540  0.14566181  0.20416525    -0.20300
F3672       F  0.74169597  0.17476484  0.23228920    -0.22900
O3673       O  0.52447892  0.63684569  0.32565313    -0.88300
C3674       C  0.59563424  0.68169963  0.28194872     0.87700
Mg3675     Mg  0.51840843  0.66005844  0.35299360     1.58100
O3676       O  0.60490265  0.63087717  0.31688486    -0.88100
O3677       O  0.53012923  0.59740793  0.31653919    -0.75400
C3678       C  0.65437604  0.72660998  0.39698031     0.92800
O3679       O  0.55584726  0.70785401  0.31071592    -0.75200
O3680       O  0.62963983  0.72792687  0.39800356    -0.82700
Mg3681     Mg  0.53008210  0.65901249  0.29535718     1.58000
C3682       C  0.69417563  0.66693438  0.34613312     0.92700
O3683       O  0.50236341  0.61250540  0.27786644    -0.81000
H3684       H  0.59244562  0.58895114  0.32859857    -0.06300
C3685       C  0.64909004  0.72270307  0.33319465     0.87600
O3686       O  0.54288692  0.64095277  0.37451749    -0.75500
O3687       O  0.57405086  0.65955791  0.29125798    -0.88200
O3688       O  0.67946520  0.65834973  0.32833532    -0.81100
C3689       C  0.63636284  0.63199100  0.26532129     0.92800
C3690       C  0.51157358  0.60322264  0.26188012     0.92600
Mg3691     Mg  0.63725153  0.67355768  0.36483918     1.58000
O3692       O  0.66322504  0.72150418  0.37923020    -0.81000
O3693       O  0.61284860  0.62402141  0.35041156    -0.75200
O3694       O  0.60761110  0.62406506  0.26593862    -0.81100
O3695       O  0.98743772  0.66588230  0.30145217    -0.82800
O3696       O  0.56010932  0.70279461  0.39599300    -0.81100
C3697       C  0.60296476  0.61353246  0.33164898     0.87100
O3698       O  0.59253044  0.67110815  0.36846243    -0.88200
O3699       O  0.64129809  0.69501283  0.33477999    -0.88300
O3700       O  0.63581470  0.73449833  0.34416623    -0.75400
Mg3701     Mg  0.57013128  0.61460377  0.29162048     1.58000
O3702       O  0.65511303  0.64781020  0.28021635    -0.82800
H3703       H  0.49755840  0.59451955  0.33777752    -0.06500
O3704       O  0.56184001  0.70075063  0.34459694    -0.88000
H3705       H  0.57625429  0.74287395  0.33252084    -0.06300
H3706       H  0.57666291  0.63588192  0.38914213    -0.06500
C3707       C  0.56501086  0.71820816  0.32959538     0.87100
C3708       C  0.51646080  0.60911617  0.32711358     0.87600
C3709       C  0.57118799  0.64887374  0.37788478     0.87700
H3710       H  0.66753333  0.73719903  0.32219654    -0.06500
O3711       O  0.62384059  0.69011345  0.28608788    -0.75500
Mg3712     Mg  0.59632464  0.71579593  0.36967482     1.58000
H3713       H  0.59043769  0.69435606  0.27022263    -0.06500
C3714       C  0.97658882  0.67271682  0.31776833     0.92700
O3715       O  0.51273527  0.68510034  0.38262732    -0.82700
C3716       C  0.53268145  0.69842923  0.39755387     0.92700
O3717       O  0.53604254  0.60122888  0.26349734    -0.82700
Mg3718     Mg  0.64829144  0.67206515  0.30843982     1.58200
O3719       O  0.48812512  0.67472036  0.33329420    -0.81000
O3720       O  0.68476949  0.67697698  0.36149662    -0.82700
C3721       C  0.68318602  0.59605810  0.19193407     0.02300
C3722       C  0.68384525  0.56804857  0.18905129     0.02300
C3723       C  0.69308381  0.56193903  0.16923295    -0.18300
C3724       C  0.70258068  0.58326579  0.15247120     0.02300
C3725       C  0.70107627  0.61068309  0.15503171     0.02300
C3726       C  0.69061070  0.61630262  0.17445896    -0.18300
H3727       H  0.68858654  0.63688943  0.17606089     0.04300
H3728       H  0.69198766  0.53990773  0.16669117     0.04300
C3729       C  0.94547714  0.58684418  0.18123965     0.02300
C3730       C  0.91703574  0.55867189  0.18035031     0.02300
C3731       C  0.90013478  0.54954682  0.16095723    -0.18300
C3732       C  0.91143346  0.56801310  0.14229539     0.02300
C3733       C  0.93990598  0.59686419  0.14366599     0.02300
C3734       C  0.95658035  0.60555539  0.16304086    -0.18300
H3735       H  0.97825579  0.62743006  0.16407606     0.04300
H3736       H  0.87817454  0.52794435  0.16035455     0.04300
O3737       O  0.64410407  0.94681722  0.33574238    -0.88300
C3738       C  0.57802659  0.93576001  0.37933308     0.87700
Mg3739     Mg  0.64707998  0.96582701  0.30446463     1.58100
O3740       O  0.56714015  0.86760209  0.35384301    -0.88100
O3741       O  0.64158196  0.90650510  0.35116142    -0.75400
C3742       C  0.50528791  0.88907788  0.26254674     0.92800
O3743       O  0.61212233  0.98807408  0.34183313    -0.75200
O3744       O  0.52973743  0.91564338  0.26172159    -0.82700
Mg3745     Mg  0.64097120  0.97275943  0.36202256     1.58000
C3746       C  0.97553817  0.80803559  0.33304709     0.92700
O3747       O  0.67150561  0.96278317  0.38510791    -0.81000
H3748       H  0.58083072  0.83706952  0.34668597    -0.06300
C3749       C  0.51806720  0.90585461  0.32658597     0.87600
O3750       O  0.62188718  0.91704474  0.28959304    -0.75500
O3751       O  0.59931664  0.93204731  0.37242687    -0.88200
O3752       O  0.49288414  0.81776050  0.34890440    -0.81100
C3753       C  0.53998126  0.85088767  0.40767321     0.92800
C3754       C  0.66612953  0.94507301  0.40116885     0.92600
Mg3755     Mg  0.52979068  0.86069005  0.30234442     1.58000
O3756       O  0.50020948  0.87076454  0.27827062    -0.81000
O3757       O  0.55784153  0.84439922  0.32258643    -0.75200
O3758       O  0.56886762  0.87055464  0.40526823    -0.81100
O3759       O  0.68771383  0.51321562  0.35040298    -0.82800
O3760       O  0.60330687  0.96178300  0.25854630    -0.81100
C3761       C  0.56898090  0.84912039  0.34146336     0.87100
O3762       O  0.57198501  0.90091815  0.29171514    -0.88200
O3763       O  0.52743545  0.88729978  0.32880257    -0.88300
O3764       O  0.52998232  0.92722043  0.31269434    -0.75400
Mg3765     Mg  0.60373220  0.89156151  0.37716587     1.58000
O3766       O  0.52055360  0.84645793  0.39298089    -0.82800
H3767       H  0.67227161  0.93054904  0.32741759    -0.06500
O3768       O  0.60399053  0.96549636  0.31034356    -0.88000
H3769       H  0.58898856  0.99496183  0.31762750    -0.06300
H3770       H  0.58839488  0.87597206  0.27739297    -0.06500
C3771       C  0.60134665  0.98341667  0.32284235     0.87100
C3772       C  0.65365981  0.92838139  0.33768540     0.87600
C3773       C  0.59365843  0.89717230  0.28565591     0.87700
H3774       H  0.49962643  0.90411715  0.33684362    -0.06500
O3775       O  0.54967784  0.91604604  0.37577007    -0.75500
Mg3776     Mg  0.56790619  0.94172532  0.28665357     1.58000
H3777       H  0.58370710  0.95678161  0.38800636    -0.06500
C3778       C  0.69560669  0.52599103  0.33203670     0.92700
O3779       O  0.65094991  0.98558974  0.27198523    -0.82700
C3780       C  0.63239627  0.98066225  0.25658283     0.92700
O3781       O  0.64173967  0.91838176  0.40191427    -0.82700
Mg3782     Mg  0.52426349  0.86770579  0.36038109     1.58200
O3783       O  0.68064991  0.51254325  0.31505881    -0.81000
O3784       O  0.98396442  0.82035477  0.31461998    -0.82700
O3785       O  0.80533612  0.85961726  0.33999092    -0.88300
C3786       C  0.87012241  0.92864230  0.37826840     0.87700
Mg3787     Mg  0.81756495  0.85510848  0.30759183     1.58100
O3788       O  0.81036744  0.94088908  0.35950076    -0.88100
O3789       O  0.77210952  0.86732564  0.35822580    -0.75400
C3790       C  0.87475896  0.99212270  0.26259406     0.92800
O3791       O  0.88007272  0.88826288  0.34010592    -0.75200
O3792       O  0.87712268  0.96789441  0.26312250    -0.82700
Mg3793     Mg  0.83873598  0.86332977  0.36351710     1.58000
C3794       C  0.83943906  0.53143598  0.33595797     0.92700
O3795       O  0.80311325  0.83684341  0.39018850    -0.81000
H3796       H  0.76546249  0.92900321  0.35815960    -0.06300
C3797       C  0.89204798  0.98637183  0.32588965     0.87600
O3798       O  0.79286750  0.88058145  0.29474088    -0.75500
O3799       O  0.84376894  0.90718491  0.37381839    -0.88200
O3800       O  0.83440875  0.01532867  0.35381232    -0.81100
C3801       C  0.82789637  0.96891589  0.41194261     0.92800
C3802       C  0.79262625  0.84421493  0.40651426     0.92600
Mg3803     Mg  0.83020679  0.97358066  0.30688298     1.58000
O3804       O  0.86423733  0.00002212  0.27869309    -0.81000
O3805       O  0.79003055  0.94882242  0.33102430    -0.75200
O3806       O  0.82217751  0.94105597  0.41045475    -0.81100
O3807       O  0.83198325  0.81675262  0.35209905    -0.82800
O3808       O  0.84741104  0.89649796  0.26100946    -0.81100
C3809       C  0.78776966  0.93930156  0.35011701     0.87100
O3810       O  0.82635754  0.93017279  0.29720546    -0.88200
O3811       O  0.86487461  0.97897157  0.33014422    -0.88300
O3812       O  0.89838796  0.97168047  0.31195870    -0.75400
Mg3813     Mg  0.80085885  0.90565254  0.38287120     1.58000
O3814       O  0.84036573  0.98767020  0.39658007    -0.82800
H3815       H  0.75944771  0.83468868  0.33483078    -0.06500
O3816       O  0.86063452  0.89775453  0.31180832    -0.88000
H3817       H  0.90547585  0.90937407  0.31346999    -0.06300
H3818       H  0.78376127  0.91403203  0.28492173    -0.06500
C3819       C  0.88298115  0.89887737  0.32126640     0.87100
C3820       C  0.77826145  0.85285258  0.34398472     0.87600
C3821       C  0.80048244  0.90872399  0.29187530     0.87700
H3822       H  0.91080250  0.00520676  0.33464812    -0.06500
O3823       O  0.87806403  0.95680124  0.37494485    -0.75500
Mg3824     Mg  0.86940039  0.93243447  0.28807337     1.58000
H3825       H  0.88706858  0.92328070  0.38474686    -0.06500
C3826       C  0.83495515  0.80818046  0.33338506     0.92700
O3827       O  0.83316025  0.85087253  0.27482872    -0.82700
C3828       C  0.84443361  0.86967722  0.25946641     0.92700
O3829       O  0.79143305  0.86903915  0.40749472    -0.82700
Mg3830     Mg  0.85389291  0.98330368  0.36296904     1.58200
O3831       O  0.83744689  0.82393869  0.31684090    -0.81000
O3832       O  0.84329738  0.52275801  0.31751567    -0.82700
C3833       C  0.90086734  0.84579648  0.18588101     0.02300
C3834       C  0.92832961  0.84384913  0.18578825     0.02300
C3835       C  0.93622125  0.83358231  0.16677296    -0.18300
C3836       C  0.91700018  0.82505827  0.14827290     0.02300
C3837       C  0.88915842  0.82652826  0.14932183     0.02300
C3838       C  0.88230945  0.83791564  0.16769750    -0.18300
H3839       H  0.86205292  0.84085473  0.16789398     0.04300
H3840       H  0.95736176  0.83236162  0.16632865     0.04300
O3841       O  0.71446608  0.52658297  0.00594165    -0.88300
C3842       C  0.74122745  0.98117670  0.04353268     0.87700
Mg3843     Mg  0.68681915  0.50637942  0.97788661     1.58100
O3844       O  0.80322543  0.53441179  0.01387509    -0.88100
O3845       O  0.76019645  0.56534710  0.01500760    -0.75400
C3846       C  0.75939062  0.94885099  0.92271566     0.92800
O3847       O  0.67752656  0.95684501  0.01440438    -0.75200
O3848       O  0.73305728  0.94643347  0.92612473    -0.82700
Mg3849     Mg  0.69817437  0.00306319  0.03279373     1.58000
C3850       C  0.86045553  0.50603521  0.98230890     0.92700
O3851       O  0.71232213  0.54176668  0.05565912    -0.81000
H3852       H  0.83198454  0.57830158  0.00529028    -0.06300
C3853       C  0.75946065  0.94744918  0.98809470     0.87600
O3854       O  0.73117353  0.52904325  0.95664166    -0.75500
O3855       O  0.74222264  0.00443260  0.03590919    -0.88200
O3856       O  0.85183931  0.50894001  0.00109432    -0.81100
C3857       C  0.83081930  0.52999313  0.06620038     0.92800
C3858       C  0.73408170  0.55655545  0.06899574     0.92600
Mg3859     Mg  0.79727157  0.50123921  0.96222769     1.58000
O3860       O  0.78194600  0.96250405  0.93589779    -0.81000
O3861       O  0.81865596  0.54721867  0.98080694    -0.75200
O3862       O  0.80938538  0.53694624  0.06494130    -0.81100
O3863       O  0.65156758  0.00163930  0.03037012    -0.82800
O3864       O  0.68804174  0.97208133  0.92997804    -0.81100
C3865       C  0.81875076  0.55428147  0.00039893     0.87100
O3866       O  0.75283834  0.50031102  0.95897079    -0.88200
O3867       O  0.77923896  0.97528752  0.98859905    -0.88300
O3868       O  0.73432393  0.93739355  0.97750295    -0.75400
Mg3869     Mg  0.78253602  0.54737537  0.03908082     1.58000
O3870       O  0.83549979  0.51563187  0.05086200    -0.82800
H3871       H  0.73019151  0.56956072  0.99516095    -0.06500
O3872       O  0.69305407  0.97019738  0.98141029    -0.88000
H3873       H  0.66541591  0.92599275  0.98983342    -0.06300
H3874       H  0.77085824  0.53834997  0.94082183    -0.06500
C3875       C  0.67795299  0.95000987  0.99480833     0.87100
C3876       C  0.73441901  0.55435528  0.00510523     0.87600
C3877       C  0.75253594  0.52309436  0.95163595     0.87700
H3878       H  0.76336632  0.93132302  0.99720469    -0.06500
O3879       O  0.76124993  0.97344297  0.03853659    -0.75500
Mg3880     Mg  0.71303246  0.95829397  0.95477441     1.58000
H3881       H  0.72250408  0.96672012  0.05435981    -0.06500
C3882       C  0.63380369  0.99609190  0.01434922     0.92700
O3883       O  0.65879565  0.98780555  0.94679525    -0.82700
C3884       C  0.66436548  0.97562639  0.93066185     0.92700
O3885       O  0.76105423  0.56010014  0.06615551    -0.82700
Mg3886     Mg  0.80578732  0.99442418  0.01804493     1.58200
O3887       O  0.64215733  0.99362317  0.99534886    -0.85800
O3888       O  0.84355995  0.50130723  0.96580409    -0.82700
O3889       O  0.77082250  0.80883350  0.99870229    -0.88300
C3890       C  0.76475511  0.73960850  0.95906784     0.87700
Mg3891     Mg  0.79035347  0.81496248  0.02996404     1.58100
O3892       O  0.69375417  0.72233923  0.98350322    -0.88100
O3893       O  0.72513715  0.79568241  0.98531791    -0.75400
C3894       C  0.72329117  0.67825237  0.07598439     0.92800
O3895       O  0.81871559  0.78176472  0.99505391    -0.75200
O3896       O  0.74847278  0.70397860  0.07491363    -0.82700
Mg3897     Mg  0.79807359  0.80365202  0.97319657     1.58000
C3898       C  0.63690332  0.63492725  0.00680148     0.92700
O3899       O  0.78460045  0.82663473  0.94693582    -0.81000
H3900       H  0.65803350  0.73003078  0.98666707    -0.06300
C3901       C  0.73969175  0.68416113  0.01201224     0.87600
O3902       O  0.74133450  0.78624630  0.04515543    -0.75500
O3903       O  0.75861421  0.75929277  0.96581871    -0.88200
O3904       O  0.64999619  0.64855503  0.98953012    -0.81100
C3905       C  0.68178421  0.69455193  0.93000537     0.92800
C3906       C  0.76263541  0.81805944  0.93340143     0.92600
Mg3907     Mg  0.68940258  0.69200460  0.03478521     1.58000
O3908       O  0.70370885  0.66831940  0.06062224    -0.81000
O3909       O  0.66766005  0.71307701  0.01325272    -0.75200
O3910       O  0.70018086  0.72333062  0.93305053    -0.81100
O3911       O  0.84010111  0.85036194  0.98160378    -0.82800
O3912       O  0.78383006  0.77506180  0.07591033    -0.81100
C3913       C  0.67237816  0.72189285  0.99393320     0.87100
O3914       O  0.72793316  0.73730341  0.04251656    -0.88200
O3915       O  0.71774443  0.68890409  0.00933349    -0.88300
O3916       O  0.76172245  0.70048707  0.02492648    -0.75400
Mg3917     Mg  0.71481094  0.75788889  0.96048092     1.58000
O3918       O  0.67656665  0.67510355  0.94471958    -0.82800
H3919       H  0.74773704  0.83076696  0.00666485    -0.06500
O3920       O  0.79325904  0.77383592  0.02496578    -0.88000
H3921       H  0.82772253  0.76429861  0.02164326    -0.06300
H3922       H  0.70049935  0.75107460  0.05653795    -0.06500
C3923       C  0.81395709  0.77314257  0.01441788     0.87100
C3924       C  0.74831431  0.81291807  0.99706837     0.87600
C3925       C  0.72229263  0.75769113  0.04849238     0.87700
H3926       H  0.74057648  0.66622436  0.00272608    -0.06500
O3927       O  0.74678297  0.71095945  0.96248278    -0.75500
Mg3928     Mg  0.77130167  0.73923279  0.04918668     1.58000
H3929       H  0.78639294  0.74703964  0.95057118    -0.06500
C3930       C  0.85251167  0.86172007  0.99971886     0.92700
O3931       O  0.81327222  0.82111523  0.06184117    -0.82700
C3932       C  0.80702066  0.80237342  0.07712985     0.92700
O3933       O  0.73622602  0.79414781  0.93571978    -0.82700
Mg3934     Mg  0.69841280  0.68228958  0.97764537     1.58200
O3935       O  0.83937498  0.84939703  0.01739312    -0.81000
O3936       O  0.64887164  0.64487183  0.02525952    -0.82700
O3937       O  0.52742308  0.72194323  0.99641695    -0.88300
C3938       C  0.96819752  0.72781077  0.95205446     0.87700
Mg3939     Mg  0.51374835  0.70472599  0.02874343     1.58100
O3940       O  0.52433536  0.79881032  0.97623096    -0.88100
O3941       O  0.56255344  0.76265043  0.97930107    -0.75400
C3942       C  0.94850863  0.78051663  0.07025752     0.92800
O3943       O  0.95408830  0.67890838  0.99171415    -0.75200
O3944       O  0.94631103  0.75391655  0.07084835    -0.82700
Mg3945     Mg  0.99655368  0.69376658  0.96969498     1.58000
C3946       C  0.49425365  0.85886814  0.99881193     0.92700
O3947       O  0.53494618  0.70258193  0.94591943    -0.81000
H3948       H  0.56871790  0.83059905  0.98194686    -0.06300
C3949       C  0.93938749  0.75854955  0.00626174     0.87600
O3950       O  0.53518625  0.75383525  0.04270330    -0.75500
O3951       O  0.99400721  0.73312057  0.95826104    -0.88200
O3952       O  0.49341775  0.84461020  0.98166775    -0.81100
C3953       C  0.51122264  0.81301208  0.92270845     0.92800
C3954       C  0.54847682  0.72099482  0.93022818     0.92600
Mg3955     Mg  0.49669532  0.80664272  0.02886087     1.58000
O3956       O  0.96164225  0.79893680  0.05450810    -0.81000
O3957       O  0.53965807  0.82279103  0.00712211    -0.75200
O3958       O  0.52171120  0.79432745  0.92465862    -0.81100
O3959       O  0.99853143  0.65154743  0.98167356    -0.82800
O3960       O  0.97653079  0.70978094  0.07411714    -0.81100
C3961       C  0.54510953  0.81806384  0.98795926     0.87100
O3962       O  0.49993384  0.76755487  0.03956868    -0.88200
O3963       O  0.96688702  0.77799351  0.00285236    -0.88300
O3964       O  0.93183459  0.73806965  0.02062189    -0.75400
Mg3965     Mg  0.53752795  0.77463342  0.95320165     1.58000
O3966       O  0.49572705  0.81619045  0.93785038    -0.82800
H3967       H  0.57277058  0.74184447  0.00330019    -0.06500
O3968       O  0.97035711  0.70244993  0.02273138    -0.88000
H3969       H  0.92560740  0.67170405  0.01713949    -0.06300
H3970       H  0.54086014  0.79466633  0.05384813    -0.06500
C3971       C  0.94916967  0.68368062  0.01100808     0.87100
C3972       C  0.55489223  0.74180824  0.99340494     0.87600
C3973       C  0.52568747  0.77287785  0.04592664     0.87700
H3974       H  0.92139798  0.75862313  0.99655966    -0.06500
O3975       O  0.95843211  0.74649416  0.95586776    -0.75500
Mg3976     Mg  0.95816474  0.72688632  0.04616413     1.58000
H3977       H  0.95312790  0.70621932  0.94387516    -0.06500
C3978       C  0.99865634  0.64135348  0.00035227     0.92700
O3979       O  0.99908670  0.68481192  0.06048858    -0.82700
C3980       C  0.98476019  0.68939116  0.07576094     0.92700
O3981       O  0.55010308  0.74734606  0.92916285    -0.82700
Mg3982     Mg  0.97981945  0.79526762  0.97023707     1.58200
O3983       O  0.00072224  0.65648019  0.01725278    -0.81000
O3984       O  0.49368166  0.84807893  0.01735986    -0.82700
O3985       O  0.64358437  0.52427098  0.67413656    -0.88300
C3986       C  0.69621077  0.60082127  0.71218128     0.87700
Mg3987     Mg  0.65928633  0.51729724  0.64355096     1.58100
O3988       O  0.63623130  0.60283691  0.68336733    -0.88100
O3989       O  0.60475296  0.52900205  0.68634000    -0.75400
C3990       C  0.71993138  0.65219392  0.59394283     0.92800
O3991       O  0.71879715  0.56056277  0.67935399    -0.75200
O3992       O  0.72279960  0.62839621  0.59546812    -0.82700
Mg3993     Mg  0.67577186  0.53580250  0.70087990     1.58000
C3994       C  0.65875700  0.68837794  0.65301323     0.92700
O3995       O  0.63903853  0.51016059  0.72685242    -0.81000
H3996       H  0.59124729  0.58654758  0.67660376    -0.06300
C3997       C  0.72312451  0.64997366  0.65837498     0.87600
O3998       O  0.63511366  0.53979031  0.62565536    -0.75500
O3999       O  0.67308016  0.57738189  0.70521855    -0.88200
O4000       O  0.65555121  0.67578399  0.67135551    -0.81100
C4001       C  0.64324813  0.63389510  0.73538832     0.92800
C4002       C  0.62253391  0.51527194  0.74006220     0.92600
Mg4003     Mg  0.66571665  0.63262461  0.63136804     1.58000
O4004       O  0.70668584  0.65959642  0.60848334    -0.81000
O4005       O  0.62065468  0.60669508  0.65143198    -0.75200
O4006       O  0.64284457  0.60825251  0.73473427    -0.81100
O4007       O  0.68006313  0.99114339  0.69606547    -0.82800
O4008       O  0.69688927  0.55667382  0.59654065    -0.81100
C4009       C  0.61503832  0.59825707  0.67090330     0.87100
O4010       O  0.66646663  0.58996705  0.62644361    -0.88200
O4011       O  0.69525658  0.64243501  0.65903298    -0.88300
O4012       O  0.73286304  0.63527955  0.64693195    -0.75400
Mg4013     Mg  0.62675806  0.57049173  0.70929063     1.58000
O4014       O  0.65320898  0.65261302  0.71965746    -0.82800
H4015       H  0.59932505  0.49411623  0.66663190    -0.06500
O4016       O  0.70123387  0.56163236  0.64757529    -0.88000
H4017       H  0.74644860  0.57768947  0.65310906    -0.06300
H4018       H  0.62561060  0.57044887  0.61111592    -0.06500
C4019       C  0.72305867  0.56673665  0.65953217     0.87100
C4020       C  0.61533938  0.51463869  0.67552847     0.87600
C4021       C  0.64196414  0.56709498  0.62050989     0.87700
H4022       H  0.73958767  0.66921676  0.66811588    -0.06500
O4023       O  0.70121382  0.62782034  0.70780955    -0.75500
Mg4024     Mg  0.71182092  0.59464048  0.62254476     1.58000
H4025       H  0.71266813  0.59832678  0.72208463    -0.06500
C4026       C  0.68102855  0.97790506  0.67880360     0.92700
O4027       O  0.67585350  0.50955955  0.61059667    -0.82700
C4028       C  0.68745017  0.52784824  0.59465240     0.92700
O4029       O  0.61675300  0.53706220  0.73693167    -0.82700
Mg4030     Mg  0.67577950  0.64818016  0.68860219     1.58200
O4031       O  0.67718490  0.48777533  0.66013327    -0.81000
O4032       O  0.66513599  0.67795190  0.63624672    -0.82700
C4033       C  0.60933113  0.67315679  0.85303116     0.02300
C4034       C  0.58170718  0.67473884  0.85426807     0.02300
C4035       C  0.56267744  0.66731481  0.83588516    -0.18300
C4036       C  0.57125940  0.65903257  0.81636622     0.02300
C4037       C  0.60072314  0.66084548  0.81492332     0.02300
C4038       C  0.61846348  0.66622213  0.83348968    -0.18300
H4039       H  0.63966877  0.66499052  0.83277457     0.04300
H4040       H  0.54117751  0.66794085  0.83680940     0.04300
C4041       C  0.58120919  0.93512526  0.85767960     0.02300
C4042       C  0.55284360  0.90653620  0.85499546     0.02300
C4043       C  0.53795603  0.89961343  0.83486447    -0.18300
C4044       C  0.55140812  0.91952489  0.81726123     0.02300
C4045       C  0.58017514  0.94724833  0.81986983     0.02300
C4046       C  0.59470021  0.95462919  0.83991246    -0.18300
H4047       H  0.61721968  0.97541788  0.84162033     0.04300
H4048       H  0.51605283  0.87825764  0.83281960     0.04300
O4049       O  0.97864125  0.61864483  0.67181855    -0.88300
C4050       C  0.90814386  0.59888316  0.71423303     0.87700
Mg4051     Mg  0.98239818  0.64020529  0.64100031     1.58100
O4052       O  0.90326349  0.53450767  0.68656321    -0.88100
O4053       O  0.97791676  0.57828103  0.68587759    -0.75400
C4054       C  0.84318452  0.55746629  0.59648286     0.92800
O4055       O  0.94119906  0.65515167  0.67890891    -0.75200
O4056       O  0.86670969  0.58470752  0.59569482    -0.82700
Mg4057     Mg  0.97062331  0.64091878  0.69932300     1.58000
C4058       C  0.81332398  0.96758108  0.65916654     0.92700
O4059       O  0.00132884  0.63339621  0.72343813    -0.81000
H4060       H  0.92088168  0.50742245  0.67862800    -0.06300
C4061       C  0.85175710  0.57059938  0.65983412     0.87600
O4062       O  0.96055762  0.59345599  0.62319185    -0.75500
O4063       O  0.93074952  0.59765120  0.70714435    -0.88200
O4064       O  0.82391811  0.98003264  0.67743388    -0.81100
C4065       C  0.87330648  0.51510823  0.73958262     0.92800
C4066       C  0.99875451  0.61438854  0.73792296     0.92600
Mg4067     Mg  0.86958855  0.53033663  0.63430187     1.58000
O4068       O  0.83838970  0.54006998  0.61253675    -0.81000
O4069       O  0.89871877  0.51518888  0.65419885    -0.75200
O4070       O  0.90216353  0.53535946  0.73794927    -0.81100
O4071       O  0.51098877  0.68562722  0.69362808    -0.82800
O4072       O  0.93933378  0.63405772  0.59484883    -0.81100
C4073       C  0.90793242  0.51842127  0.67354887     0.87100
O4074       O  0.91031777  0.57336360  0.62652049    -0.88200
O4075       O  0.86256795  0.55311986  0.66150315    -0.88300
O4076       O  0.86344266  0.59333292  0.64697508    -0.75400
Mg4077     Mg  0.93871392  0.55922244  0.71114345     1.58000
O4078       O  0.85442840  0.50893966  0.72409320    -0.82800
H4079       H  0.00909511  0.60532538  0.66322687    -0.06500
O4080       O  0.93747340  0.63651203  0.64646438    -0.88000
H4081       H  0.91898144  0.66279302  0.65446496    -0.06300
H4082       H  0.92905478  0.55252405  0.60959843    -0.06500
C4083       C  0.93223832  0.65210955  0.65952585     0.87100
C4084       C  0.98957570  0.60126290  0.67325739     0.87600
C4085       C  0.93290357  0.57226505  0.61920150     0.87700
H4086       H  0.83224978  0.56676872  0.66979149    -0.06500
O4087       O  0.88053987  0.57822040  0.70968972    -0.75500
Mg4088     Mg  0.90288891  0.61178615  0.62186241     1.58000
H4089       H  0.91197899  0.61853491  0.72393491    -0.06500
C4090       C  0.52369150  0.69872413  0.67611571     0.92700
O4091       O  0.98620690  0.66425903  0.60894068    -0.82700
C4092       C  0.96694585  0.65698303  0.59349831     0.92700
O4093       O  0.97627277  0.58634892  0.73741688    -0.82700
Mg4094     Mg  0.85830154  0.53159950  0.69201700     1.58200
O4095       O  0.01202880  0.68803715  0.65612335    -0.81000
O4096       O  0.82573407  0.98105602  0.64175358    -0.82700
O4097       O  0.86065109  0.80246986  0.66185089    -0.88300
C4098       C  0.92469132  0.86176438  0.61823104     0.87700
Mg4099     Mg  0.85582611  0.81799835  0.69334407     1.58100
O4100       O  0.94177123  0.80875637  0.64281100    -0.88100
O4101       O  0.86773614  0.76769450  0.64534938    -0.75400
C4102       C  0.99614084  0.89389108  0.73315148     0.92800
O4103       O  0.88461486  0.87585110  0.65509913    -0.75200
O4104       O  0.97128516  0.89514514  0.73200262    -0.82700
Mg4105     Mg  0.86079353  0.83088050  0.63550281     1.58000
C4106       C  0.53245675  0.83999367  0.66712991     0.92700
O4107       O  0.83345134  0.79012973  0.61221924    -0.81000
H4108       H  0.93078960  0.76535973  0.64973563    -0.06300
C4109       C  0.98438492  0.89625287  0.66862027     0.87600
O4110       O  0.88578564  0.80061597  0.70919607    -0.75500
O4111       O  0.90492361  0.83660871  0.62568714    -0.88200
O4112       O  0.01844753  0.83972155  0.64803167    -0.81100
C4113       C  0.96671068  0.81895938  0.58955925     0.92800
C4114       C  0.84108147  0.78093275  0.59539749     0.92600
Mg4115     Mg  0.97723668  0.84101208  0.69413030     1.58000
O4116       O  0.00407093  0.88098536  0.71858364    -0.81000
O4117       O  0.95180193  0.79616248  0.67404960    -0.75200
O4118       O  0.93927071  0.81457895  0.59126596    -0.81100
O4119       O  0.81452024  0.82474597  0.64623012    -0.82800
O4120       O  0.89955065  0.86519474  0.73703187    -0.81100
C4121       C  0.94117540  0.78914836  0.65509104     0.87100
O4122       O  0.93374128  0.83699753  0.70392832    -0.88200
O4123       O  0.97895929  0.86929966  0.66729747    -0.88300
O4124       O  0.96950933  0.90389809  0.68153279    -0.75400
Mg4125     Mg  0.90486730  0.79431369  0.61938234     1.58000
O4126       O  0.98641615  0.83262396  0.60443659    -0.82800
H4127       H  0.83664641  0.75760083  0.66960992    -0.06500
O4128       O  0.89544171  0.86290645  0.68581375    -0.88000
H4129       H  0.90393581  0.90582398  0.68002272    -0.06300
H4130       H  0.92310162  0.79930135  0.72115218    -0.06500
C4131       C  0.89475428  0.88241156  0.67413602     0.87100
C4132       C  0.85407803  0.77526362  0.65940445     0.87600
C4133       C  0.91477656  0.81207965  0.71203116     0.87700
H4134       H  0.00158608  0.91356509  0.65810186    -0.06500
O4135       O  0.95361767  0.87175942  0.62065000    -0.75500
Mg4136     Mg  0.93308946  0.87975666  0.70810471     1.58000
H4137       H  0.91722376  0.87575755  0.60973556    -0.06500
C4138       C  0.80425536  0.82623189  0.66464143     0.92700
O4139       O  0.85111453  0.83699300  0.72512073    -0.82700
C4140       C  0.87041411  0.85452712  0.73924190     0.92700
O4141       O  0.86691884  0.78134050  0.59442939    -0.82700
Mg4142     Mg  0.98280835  0.85263264  0.63605441     1.58200
O4143       O  0.81875481  0.82834713  0.68181917    -0.81000
O4144       O  0.52294290  0.84429710  0.68513294    -0.82700
C4145       C  0.78818965  0.87781058  0.83967498     0.02300
C4146       C  0.79405937  0.90801050  0.84471853     0.02300
C4147       C  0.81121871  0.93153885  0.82967884    -0.18300
C4148       C  0.82303725  0.92572644  0.81075722     0.02300
C4149       C  0.81859853  0.89574949  0.80691773     0.02300
C4150       C  0.80101971  0.87217687  0.82144524    -0.18300
H4151       H  0.79792657  0.84926626  0.81879498     0.04300
H4152       H  0.81605174  0.95494913  0.83271006     0.04300
C4153       C  0.51041678  0.74070423  0.47936770     0.02300
C4154       C  0.51282765  0.77022754  0.48154835     0.02300
C4155       C  0.50924311  0.78029983  0.50183638    -0.18300
C4156       C  0.00550172  0.76727381  0.52070071     0.02300
C4157       C  0.00647449  0.73939432  0.51969244     0.02300
C4158       C  0.50690700  0.72338685  0.49804958    -0.18300
H4159       H  0.50713397  0.70183887  0.49679986     0.04300
H4160       H  0.50984821  0.80229161  0.50326628     0.04300
C4161       C  0.73419537  0.72944780  0.47911016     0.02300
C4162       C  0.75586840  0.76167812  0.48047221     0.02300
C4163       C  0.77253020  0.77281678  0.49999279    -0.18300
C4164       C  0.76846417  0.75270279  0.51703467     0.02300
C4165       C  0.74569468  0.72105418  0.51532738     0.02300
C4166       C  0.72911000  0.70970513  0.49628573    -0.18300
H4167       H  0.71179229  0.68536183  0.49490327     0.04300
H4168       H  0.78876145  0.79728091  0.50214649     0.04300
C4169       C  0.73603917  0.98516462  0.48108502     0.02300
C4170       C  0.76713084  0.99161912  0.48359944     0.02300
C4171       C  0.78286707  0.00491369  0.50275784    -0.18300
C4172       C  0.76732428  0.51017991  0.52007381     0.02300
C4173       C  0.73496550  0.49907206  0.51840276     0.02300
C4174       C  0.72071199  0.98978248  0.49857865    -0.18300
H4175       H  0.69669193  0.98416455  0.49687414     0.04300
H4176       H  0.80703142  0.01090971  0.50437187     0.04300
O4177       O  0.53740430  0.98472139  0.99068340    -0.88300
C4178       C  0.96297235  0.94461576  0.03208552     0.87700
Mg4179     Mg  0.57306724  0.53175387  0.99632865     1.58100
O4180       O  0.94525005  0.96092270  0.98053223    -0.88100
O4181       O  0.00342404  0.95312044  0.96699572    -0.75400
C4182       C  0.49804974  0.61102159  0.00391654     0.92800
O4183       O  0.54059067  0.00053631  0.04130928    -0.75200
O4184       O  0.52128863  0.61071790  0.01236857    -0.82700
Mg4185     Mg  0.52826199  0.95806106  0.01970580     1.58000
C4186       C  0.88940301  0.00495470  0.97916748     0.92700
O4187       O  0.51754589  0.91232157  0.00448165    -0.81000
H4188       H  0.94224615  0.95482485  0.94872783    -0.06300
C4189       C  0.95991391  0.52648857  0.02794614     0.87600
O4190       O  0.55110560  0.54814813  0.97068519    -0.75500
O4191       O  0.97771022  0.94518496  0.01589545    -0.88200
O4192       O  0.88832578  0.97967290  0.98440896    -0.81100
C4193       C  0.88206022  0.89108068  0.00020482     0.92800
C4194       C  0.49410137  0.88798692  0.99737600     0.92600
Mg4195     Mg  0.96565875  0.54184486  0.98009714     1.58000
O4196       O  0.97593224  0.58808284  0.99394487    -0.81000
O4197       O  0.95430599  0.49916755  0.95943648    -0.75200
O4198       O  0.90742490  0.89087492  0.99729930    -0.81100
O4199       O  0.57881750  0.96893503  0.01899273    -0.82800
O4200       O  0.58228573  0.60582550  0.00593595    -0.81100
C4201       C  0.94685656  0.97044959  0.96209983     0.87100
O4202       O  0.51364790  0.55245877  0.98594112    -0.88200
O4203       O  0.95447814  0.51565270  0.00962011    -0.88300
O4204       O  0.48621646  0.54404919  0.03465974    -0.75400
Mg4205     Mg  0.95693495  0.92483150  0.98479479     1.58000
O4206       O  0.88112990  0.91599303  0.00244136    -0.82800
H4207       H  0.54868560  0.98233658  0.96017653    -0.06500
O4208       O  0.54440687  0.53517642  0.02132864    -0.88000
H4209       H  0.54843054  0.54004295  0.05322910    -0.06300
H4210       H  0.52520245  0.56313335  0.95513854    -0.06500
C4211       C  0.54387471  0.52512117  0.03943614     0.87100
C4212       C  0.53081068  0.97373632  0.97240713     0.87600
C4213       C  0.52975265  0.55515678  0.97004820     0.87700
H4214       H  0.94118228  0.51806039  0.03953715    -0.06500
O4215       O  0.94216632  0.95238657  0.03149736    -0.75500
Mg4216     Mg  0.53293449  0.57190080  0.01745065     1.58000
H4217       H  0.96842867  0.93803491  0.04724881    -0.06500
C4218       C  0.60362086  0.99490827  0.01709690     0.92700
O4219       O  0.60935220  0.58119387  0.00279470    -0.82700
C4220       C  0.60787631  0.60574588  0.00504856     0.92700
O4221       O  0.96917366  0.88669857  0.98934879    -0.82700
Mg4222     Mg  0.91836605  0.96656420  0.00578176     1.58200
O4223       O  0.60243848  0.51767532  0.01784933    -0.81000
O4224       O  0.91524597  0.53079103  0.97798801    -0.82700
O4225       O  0.79290002  0.68078424  0.32190717    -0.88300
C4226       C  0.86415210  0.72374783  0.36591214     0.87700
Mg4227     Mg  0.75812267  0.63194073  0.32348586     1.58100
O4228       O  0.88572325  0.70793167  0.31511483    -0.88100
O4229       O  0.82712505  0.71404972  0.29966416    -0.75400
C4230       C  0.83732843  0.55955536  0.33728668     0.92800
O4231       O  0.78966508  0.66533956  0.37247393    -0.75200
O4232       O  0.81230902  0.55792308  0.34402564    -0.82700
Mg4233     Mg  0.80095429  0.70728373  0.35150461     1.58000
C4234       C  0.94608573  0.67092237  0.31664420     0.92700
O4235       O  0.81185714  0.75423383  0.33743592    -0.81000
H4236       H  0.89076891  0.71405013  0.28338137    -0.06300
C4237       C  0.87051358  0.64519550  0.36208183     0.87600
O4238       O  0.78458011  0.61854187  0.29939418    -0.75500
O4239       O  0.85003779  0.72123241  0.34908525    -0.88200
O4240       O  0.94477304  0.69494035  0.32168084    -0.81100
C4241       C  0.94688989  0.77831281  0.33479670     0.92800
C4242       C  0.83546797  0.77918347  0.33096175     0.92600
Mg4243     Mg  0.86952314  0.62964439  0.31460072     1.58000
O4244       O  0.86012273  0.58436508  0.32996714    -0.81000
O4245       O  0.87960090  0.67100232  0.29327620    -0.75200
O4246       O  0.92120687  0.77728866  0.33095605    -0.81100
O4247       O  0.74889496  0.69283417  0.35192216    -0.82800
O4248       O  0.74968752  0.55881617  0.33507921    -0.81100
C4249       C  0.88589704  0.69860530  0.29677480     0.87100
O4250       O  0.82047950  0.61517016  0.31727365    -0.88200
O4251       O  0.87742041  0.65614083  0.34387577    -0.88300
O4252       O  0.84308966  0.62414988  0.36668895    -0.75400
Mg4253     Mg  0.87247476  0.74264098  0.31862324     1.58000
O4254       O  0.94863212  0.75437597  0.33885217    -0.82800
H4255       H  0.78229673  0.68389032  0.29146745    -0.06500
O4256       O  0.78361968  0.62843554  0.35065564    -0.88000
H4257       H  0.77743281  0.62199792  0.38230225    -0.06300
H4258       H  0.81352939  0.60537602  0.28595673    -0.06500
C4259       C  0.78297395  0.63763860  0.36894640     0.87100
C4260       C  0.79976686  0.69255849  0.30394731     0.87600
C4261       C  0.80644702  0.61238365  0.30037498     0.87700
H4262       H  0.88798964  0.65445649  0.37455204    -0.06500
O4263       O  0.88604970  0.71758618  0.36663797    -0.75500
Mg4264     Mg  0.79803370  0.59440570  0.34781850     1.58000
H4265       H  0.85717372  0.73057854  0.38045802    -0.06500
C4266       C  0.72410314  0.66734346  0.34769728     0.92700
O4267       O  0.72121980  0.58041766  0.32634397    -0.82700
C4268       C  0.72368375  0.55675767  0.33055177     0.92700
O4269       O  0.85989461  0.78006657  0.32372962    -0.82700
Mg4270     Mg  0.91186029  0.70434644  0.34182434     1.58200
O4271       O  0.72466070  0.64305708  0.34195625    -0.81000
O4272       O  0.92164788  0.64469724  0.31362270    -0.82700
O4273       O  0.70341630  0.81695569  0.64768800    -0.88300
C4274       C  0.64331570  0.77567358  0.69767832     0.87700
Mg4275     Mg  0.74148842  0.86441642  0.64922205     1.58100
O4276       O  0.61333371  0.79575078  0.65311141    -0.88100
O4277       O  0.66405322  0.78491198  0.62796534    -0.75400
C4278       C  0.68014967  0.94803160  0.67964360     0.92800
O4279       O  0.71758124  0.82872159  0.69820083    -0.75200
O4280       O  0.70503703  0.94723562  0.68297608    -0.82700
Mg4281     Mg  0.69978732  0.78784399  0.67436469     1.58000
C4282       C  0.56217612  0.84045738  0.66622237     0.92700
O4283       O  0.68414675  0.74291323  0.65435026    -0.81000
H4284       H  0.60230819  0.79207948  0.62201175    -0.06300
C4285       C  0.64380457  0.86003168  0.70261832     0.87600
O4286       O  0.71430251  0.88223188  0.63017464    -0.75500
O4287       O  0.65230581  0.77699721  0.67902032    -0.88200
O4288       O  0.56218926  0.81564751  0.67060037    -0.81100
C4289       C  0.55365215  0.72750898  0.67639948     0.92800
C4290       C  0.65824146  0.71772420  0.65217658     0.92600
Mg4291     Mg  0.63753141  0.87717856  0.65727578     1.58000
O4292       O  0.65442016  0.92391895  0.67470704    -0.81000
O4293       O  0.61958065  0.83534509  0.63439118    -0.75200
O4294       O  0.57681228  0.72661823  0.66828951    -0.81100
O4295       O  0.74980004  0.79942261  0.66894995    -0.82800
O4296       O  0.76033468  0.93833397  0.66682494    -0.81100
C4297       C  0.61103666  0.80683517  0.63603598     0.87100
O4298       O  0.68517768  0.88811982  0.65382827    -0.88200
O4299       O  0.63349788  0.84904256  0.68476445    -0.88300
O4300       O  0.67223515  0.88006558  0.70520269    -0.75400
Mg4301     Mg  0.62277348  0.75795654  0.65115938     1.58000
O4302       O  0.55530805  0.75243929  0.68292088    -0.82800
H4303       H  0.70702052  0.81423619  0.61587802    -0.06500
O4304       O  0.72293803  0.86857567  0.68017888    -0.88000
H4305       H  0.73425238  0.87158187  0.71120781    -0.06300
H4306       H  0.68645926  0.89999891  0.62311699    -0.06500
C4307       C  0.72557459  0.85717082  0.69702032     0.87100
C4308       C  0.69238255  0.80583193  0.62996762     0.87600
C4309       C  0.69510912  0.89092248  0.63532743     0.87700
H4310       H  0.62848046  0.85189377  0.71638346    -0.06500
O4311       O  0.62438554  0.78478539  0.70273974    -0.75500
Mg4312     Mg  0.71383148  0.90645956  0.68259181     1.58000
H4313       H  0.65254797  0.76748595  0.71009554    -0.06500
C4314       C  0.77453819  0.82524900  0.66603127     0.92700
O4315       O  0.78250953  0.91379459  0.65137870    -0.82700
C4316       C  0.78379812  0.93826241  0.65862713     0.92700
O4317       O  0.63238346  0.71734759  0.65143920    -0.82700
Mg4318     Mg  0.59592358  0.80164878  0.68403778     1.58200
O4319       O  0.77444043  0.85030972  0.66315133    -0.81000
O4320       O  0.58705336  0.86577985  0.66211013    -0.82700
C4321       C  0.83324500  0.87000945  0.75258378    -0.05800
C4322       C  0.85850169  0.86555492  0.75727262     0.00200
C4323       C  0.87196160  0.87341930  0.77805545    -0.08400
C4324       C  0.85843033  0.88388712  0.79353087    -0.05800
C4325       C  0.83293893  0.88789290  0.78877078     0.00100
C4326       C  0.81990459  0.88058906  0.76794440    -0.08300
C4327       C  0.79180325  0.88283268  0.76090468     0.62100
H4328       H  0.82351504  0.86502204  0.73653166     0.12800
H4329       H  0.86762903  0.88899554  0.80969764     0.12800
C4330       C  0.90013459  0.87066129  0.78410106     0.62300
F4331       F  0.80129996  0.90650300  0.74616483    -0.22900
F4332       F  0.77677992  0.88829183  0.77759686    -0.20200
F4333       F  0.77038113  0.85532521  0.75118490    -0.19900
F4334       F  0.90676693  0.87578859  0.80579931    -0.19900
F4335       F  0.92600867  0.89239628  0.77302029    -0.20300
F4336       F  0.89478321  0.84130792  0.77918937    -0.22900
C4337       C  0.83502572  0.77356493  0.55580715    -0.05800
C4338       C  0.82094603  0.77236502  0.57576884     0.00200
C4339       C  0.78962078  0.76629858  0.57593708    -0.08400
C4340       C  0.77450754  0.76324400  0.55622441    -0.05800
C4341       C  0.78859300  0.76408377  0.53649145     0.00100
C4342       C  0.81942241  0.76946248  0.53618585    -0.08300
C4343       C  0.83576042  0.77085220  0.51516994     0.62100
H4344       H  0.85880787  0.77836173  0.55556574     0.12800
H4345       H  0.75078272  0.75874986  0.55602459     0.12800
C4346       C  0.77136694  0.76170187  0.59656343     0.62300
F4347       F  0.86484578  0.77415730  0.51844790    -0.22900
F4348       F  0.83972322  0.79594802  0.50337888    -0.20200
F4349       F  0.81829365  0.74401513  0.50338860    -0.19900
F4350       F  0.78230664  0.78969548  0.60712810    -0.19900
F4351       F  0.77418833  0.74090760  0.60963660    -0.20300
F4352       F  0.73993503  0.74991708  0.59268164    -0.22900
C4353       C  0.00725619  0.81377679  0.56954354    -0.05800
C4354       C  0.97588286  0.80644825  0.57073279     0.00200
C4355       C  0.95427412  0.78489155  0.55557084    -0.08400
C4356       C  0.96495770  0.77130241  0.54045243    -0.05800
C4357       C  0.99591377  0.77801731  0.53991048     0.00100
C4358       C  0.51749158  0.80085946  0.55124296    -0.08300
C4359       C  0.55215751  0.81964648  0.54658479     0.62100
H4360       H  0.52223205  0.83345420  0.57572149     0.12800
H4361       H  0.94927296  0.75561396  0.52836481     0.12800
C4362       C  0.92017352  0.77599569  0.55484241     0.62300
F4363       F  0.56857889  0.82252083  0.56517044    -0.22900
F4364       F  0.55949236  0.84888928  0.53983018    -0.20200
F4365       F  0.56192625  0.80654967  0.53108522    -0.19900
F4366       F  0.91789188  0.80230171  0.55212623    -0.19900
F4367       F  0.90547286  0.76111634  0.57358892    -0.20300
F4368       F  0.90446794  0.75601202  0.53800056    -0.22900
C4369       C  0.87779496  0.98789605  0.77171235    -0.05800
C4370       C  0.85648927  0.99311989  0.76015285     0.00200
C4371       C  0.82489107  0.97828678  0.76691966    -0.08400
C4372       C  0.81560992  0.95728274  0.78400742    -0.05800
C4373       C  0.83648334  0.95046171  0.79441059     0.00100
C4374       C  0.86847348  0.96721380  0.78902504    -0.08300
C4375       C  0.89376892  0.96482511  0.80102139     0.62100
H4376       H  0.90208020  0.99964696  0.76692730     0.12800
H4377       H  0.79141933  0.94501438  0.78896773     0.12800
C4378       C  0.80824143  0.49226479  0.75798280     0.62300
F4379       F  0.90724077  0.95275990  0.78746311    -0.22900
F4380       F  0.88295892  0.94654859  0.81910702    -0.20200
F4381       F  0.91644722  0.99410041  0.80752632    -0.19900
F4382       F  0.79278508  0.96961559  0.73646274    -0.19900
F4383       F  0.82178846  0.52392749  0.75529857    -0.20300
F4384       F  0.78220359  0.48265122  0.77085646    -0.22900
C4385       C  0.79240435  0.50392637  0.55169246    -0.05800
C4386       C  0.78502197  0.52330642  0.54017198     0.00200
C4387       C  0.79659562  0.55428886  0.54713898    -0.08400
C4388       C  0.81437296  0.56428073  0.56615159    -0.05800
C4389       C  0.82161324  0.54466499  0.57785856     0.00100
C4390       C  0.81028859  0.51374835  0.57045054    -0.08300
C4391       C  0.81728014  0.49095780  0.58177843     0.62100
H4392       H  0.78397870  0.48067059  0.54563346     0.12800
H4393       H  0.82332038  0.58790847  0.57165104     0.12800
C4394       C  0.79160887  0.57778221  0.53501540     0.62300
F4395       F  0.80736880  0.46393263  0.57005622    -0.22900
F4396       F  0.80192152  0.48288640  0.60125556    -0.20200
F4397       F  0.84900937  0.50401986  0.58494090    -0.19900
F4398       F  0.77811453  0.08715640  0.54826072    -0.19900
F4399       F  0.78052394  0.56827587  0.51443251    -0.20300
F4400       F  0.81954197  0.60537410  0.53341366    -0.22900
C4401       C  0.96656407  0.70356076  0.54499642    -0.05800
C4402       C  0.99782757  0.71833611  0.53855126     0.00200
C4403       C  0.51798684  0.71554422  0.55293901    -0.08400
C4404       C  0.00759973  0.69095494  0.56705517    -0.05800
C4405       C  0.97635348  0.67659539  0.57378789     0.00100
C4406       C  0.95546920  0.68346562  0.56267875    -0.08300
C4407       C  0.92184583  0.67090159  0.56973990     0.62100
H4408       H  0.95067850  0.70802137  0.53590972     0.12800
H4409       H  0.52460335  0.69896844  0.58311472     0.12800
C4410       C  0.55248278  0.73902278  0.55163047     0.62300
F4411       F  0.90755005  0.68435324  0.55861024    -0.22900
F4412       F  0.92081844  0.67704966  0.59131702    -0.20200
F4413       F  0.90488008  0.63931902  0.56609463    -0.19900
F4414       F  0.56950890  0.72435671  0.55511588    -0.19900
F4415       F  0.55995692  0.76130217  0.56737006    -0.20300
F4416       F  0.56131938  0.75334839  0.53191996    -0.22900
C4417       C  0.52731219  0.93195299  0.78701349    -0.05800
C4418       C  0.53607271  0.91152567  0.79579379     0.00200
C4419       C  0.53536009  0.88785920  0.78266028    -0.08400
C4420       C  0.52451866  0.88476748  0.76143545    -0.05800
C4421       C  0.51503617  0.90478918  0.75289051     0.00100
C4422       C  0.51806787  0.92984915  0.76550308    -0.08300
C4423       C  0.01084072  0.95339240  0.75676457     0.62100
H4424       H  0.52875677  0.95036508  0.79704620     0.12800
H4425       H  0.52188423  0.86556113  0.75166299     0.12800
C4426       C  0.54515127  0.86538830  0.79099815     0.62300
F4427       F  0.02343023  0.97968953  0.76957681    -0.22900
F4428       F  0.97923169  0.94232831  0.75502935    -0.20200
F4429       F  0.02448922  0.96200044  0.73671254    -0.19900
F4430       F  0.52339350  0.84554760  0.80560285    -0.19900
F4431       F  0.57390332  0.88111215  0.80088432    -0.20300
F4432       F  0.54733195  0.84769703  0.77459678    -0.22900
C4433       C  0.55900819  0.66486920  0.77860019    -0.05800
C4434       C  0.54940837  0.64772426  0.79761987     0.00200
C4435       C  0.52220258  0.61803634  0.79730235    -0.08400
C4436       C  0.01102016  0.60992988  0.77629012    -0.05800
C4437       C  0.51420626  0.62453412  0.75902828     0.00100
C4438       C  0.54271584  0.65348029  0.75913280    -0.08300
C4439       C  0.55688726  0.67227794  0.73889730     0.62100
H4440       H  0.58025737  0.68711274  0.77901573     0.12800
H4441       H  0.98917762  0.58825185  0.77645186     0.12800
C4442       C  0.01684201  0.60127401  0.81557295     0.62300
F4443       F  0.58767907  0.69495232  0.74190443    -0.22900
F4444       F  0.54055657  0.68681165  0.73296066    -0.20200
F4445       F  0.55624375  0.65316226  0.72246062    -0.19900
F4446       F  0.50148375  0.61048721  0.83251219    -0.19900
F4447       F  0.53586413  0.59453989  0.82516776    -0.20300
F4448       F  0.99111675  0.57253565  0.81145505    -0.22900
C4449       C  0.60663838  0.95537780  0.78484898    -0.05800
C4450       C  0.59599734  0.96737903  0.80107579     0.00200
C4451       C  0.59658069  0.99564028  0.79774584    -0.08400
C4452       C  0.60601811  0.00985337  0.77760756    -0.05800
C4453       C  0.61533382  0.99725340  0.76074649     0.00100
C4454       C  0.61624415  0.96955081  0.76466171    -0.08300
C4455       C  0.62715375  0.95456224  0.74802465     0.62100
H4456       H  0.60677129  0.93420654  0.78810714     0.12800
H4457       H  0.60701155  0.03167623  0.77522227     0.12800
C4458       C  0.58806378  0.01123313  0.81543548     0.62300
F4459       F  0.62322229  0.92647758  0.75493578    -0.22900
F4460       F  0.64407387  0.46352872  0.73876045    -0.20200
F4461       F  0.61026813  0.94899601  0.72928822    -0.19900
F4462       F  0.61009058  0.02087074  0.83151770    -0.19900
F4463       F  0.55910842  0.99099688  0.82389257    -0.20300
F4464       F  0.58726022  0.03697460  0.80806646    -0.22900
C4465       C  0.64798400  0.67111887  0.76389290    -0.05800
C4466       C  0.63134140  0.64129196  0.75504908     0.00200
C4467       C  0.60364141  0.61864428  0.76531448    -0.08400
C4468       C  0.59557602  0.62565053  0.78525157    -0.05800
C4469       C  0.61249383  0.65511826  0.79441377     0.00100
C4470       C  0.63885306  0.67860151  0.78343441    -0.08300
C4471       C  0.65754499  0.71124941  0.79233071     0.62100
H4472       H  0.66869107  0.68828487  0.75565579     0.12800
H4473       H  0.57556349  0.60805707  0.79381648     0.12800
C4474       C  0.58200835  0.58723474  0.75533720     0.62300
F4475       F  0.67912402  0.73129460  0.77763999    -0.22900
F4476       F  0.67357291  0.71109152  0.81032179    -0.20200
F4477       F  0.63795920  0.72256075  0.79764617    -0.19900
F4478       F  0.59455641  0.56829906  0.75785564    -0.19900
F4479       F  0.57779998  0.59027715  0.73374948    -0.20300
F4480       F  0.55291893  0.57298505  0.76497720    -0.22900
C4481       C  0.69940260  0.49185041  0.57413686    -0.05800
C4482       C  0.69283612  0.51620256  0.57375867     0.00200
C4483       C  0.69416365  0.53030129  0.55370470    -0.08400
C4484       C  0.70703027  0.52322291  0.53578573    -0.05800
C4485       C  0.71682820  0.50129635  0.53689394     0.00100
C4486       C  0.71036871  0.48341126  0.55586593    -0.08300
C4487       C  0.71350569  0.45474980  0.55771200     0.62100
H4488       H  0.69669894  0.47963964  0.58903340     0.12800
H4489       H  0.71053841  0.53567869  0.52090731     0.12800
C4490       C  0.68173883  0.55238326  0.55089210     0.62300
F4491       F  0.73400340  0.45883073  0.57406885    -0.22900
F4492       F  0.72372153  0.44763507  0.53902875    -0.20200
F4493       F  0.68222020  0.93085934  0.56141720    -0.19900
F4494       F  0.70326297  0.58152901  0.55830256    -0.19900
F4495       F  0.65404263  0.54171008  0.56202751    -0.20300
F4496       F  0.67577457  0.55479930  0.52951639    -0.22900
C4497       C  0.70643650  0.67754489  0.56594093    -0.05800
C4498       C  0.72822411  0.66978719  0.57365740     0.00200
C4499       C  0.75507708  0.67708881  0.56128409    -0.08400
C4500       C  0.75918117  0.69233528  0.54157514    -0.05800
C4501       C  0.73740904  0.70028615  0.53409620     0.00100
C4502       C  0.71029467  0.69235969  0.54624395    -0.08300
C4503       C  0.68543389  0.69944067  0.53853020     0.62100
H4504       H  0.68564014  0.67106811  0.57531225     0.12800
H4505       H  0.77979441  0.69883256  0.53199850     0.12800
C4506       C  0.77964196  0.66972162  0.56897625     0.62300
F4507       F  0.66268070  0.69251915  0.55391195    -0.22900
F4508       F  0.67104471  0.68186635  0.52049918    -0.20200
F4509       F  0.69855566  0.73049313  0.53360696    -0.19900
F4510       F  0.76808037  0.63812484  0.56793911    -0.19900
F4511       F  0.78794021  0.67985139  0.58990117    -0.20300
F4512       F  0.80633017  0.68405438  0.55650871    -0.22900
C4513       C  0.54746051  0.85811681  0.87016755    -0.05800
C4514       C  0.54011327  0.88180991  0.87179757     0.00200
C4515       C  0.52027921  0.88063487  0.88854448    -0.08400
C4516       C  0.50995824  0.85668167  0.90384004    -0.05800
C4517       C  0.51918256  0.83398913  0.90336158     0.00100
C4518       C  0.53818497  0.83471071  0.88582328    -0.08300
C4519       C  0.55012552  0.81211127  0.88381874     0.62100
H4520       H  0.56195247  0.85904943  0.85681521     0.12800
H4521       H  0.00244710  0.86151100  0.91970484     0.12800
C4522       C  0.51027916  0.90476088  0.89036282     0.62300
F4523       F  0.56634681  0.81590522  0.86488790    -0.22900
F4524       F  0.52546414  0.78201185  0.88416681    -0.20200
F4525       F  0.57022731  0.81697149  0.90058945    -0.19900
F4526       F  0.48909825  0.89827792  0.90682997    -0.19900
F4527       F  0.49652932  0.90599667  0.87142075    -0.20300
F4528       F  0.03048994  0.92450880  0.91283478    -0.22900
C4529       C  0.54244719  0.67788827  0.90659288    -0.05800
C4530       C  0.55971581  0.70965364  0.91179995     0.00200
C4531       C  0.58570708  0.72921321  0.89875094    -0.08400
C4532       C  0.59152032  0.71679522  0.88003814    -0.05800
C4533       C  0.57341519  0.68533632  0.87444602     0.00100
C4534       C  0.54922498  0.66521120  0.88848749    -0.08300
C4535       C  0.53018602  0.63029944  0.88567425     0.62100
H4536       H  0.52302318  0.66256879  0.91673059     0.12800
H4537       H  0.61040882  0.73176090  0.86947383     0.12800
C4538       C  0.60803611  0.76267697  0.90481703     0.62300
F4539       F  0.03737555  0.61833092  0.90224978    -0.22900
F4540       F  0.53946702  0.61933181  0.86844470    -0.20200
F4541       F  0.49919411  0.62159223  0.88293889    -0.19900
F4542       F  0.61701441  0.76443260  0.92600249    -0.19900
F4543       F  0.59385938  0.78016287  0.90205794    -0.20300
F4544       F  0.63467916  0.77546846  0.89228834    -0.22900
C4545       C  0.74025365  0.84111726  0.90058438    -0.05800
C4546       C  0.76903141  0.83322877  0.91278620     0.00200
C4547       C  0.80172336  0.83620883  0.89651571    -0.08400
C4548       C  0.80436025  0.84552156  0.86784709    -0.05800
C4549       C  0.77555572  0.85420131  0.85592882     0.00100
C4550       C  0.74237505  0.85021208  0.87198094    -0.08300
C4551       C  0.71618980  0.85250358  0.86189538     0.62100
H4552       H  0.72035145  0.83777552  0.90985548     0.12800
H4553       H  0.82454665  0.84928595  0.85864220     0.12800
C4554       C  0.82501870  0.82927169  0.90626796     0.62300
F4555       F  0.68900382  0.82439747  0.86391632    -0.22900
F4556       F  0.72196714  0.85954196  0.84035942    -0.20200
F4557       F  0.71241999  0.87506696  0.87212486    -0.19900
F4558       F  0.80990158  0.79976659  0.91474963    -0.19900
F4559       F  0.84099767  0.85052328  0.92234809    -0.20300
F4560       F  0.84599433  0.83103252  0.89088516    -0.22900
C4561       C  0.67617014  0.70741294  0.89276985    -0.05800
C4562       C  0.66469199  0.68509587  0.90917324     0.00200
C4563       C  0.63525773  0.65771001  0.90625275    -0.08400
C4564       C  0.61831041  0.65470688  0.88741687    -0.05800
C4565       C  0.62904583  0.67829647  0.87206618     0.00100
C4566       C  0.65843730  0.70522239  0.87476132    -0.08300
C4567       C  0.67198196  0.73304003  0.85992484     0.62100
H4568       H  0.69872250  0.72815150  0.89462396     0.12800
H4569       H  0.59597244  0.63411538  0.88469455     0.12800
C4570       C  0.62093385  0.63219198  0.92295127     0.62300
F4571       F  0.67997659  0.75947845  0.87184920    -0.22900
F4572       F  0.65170171  0.73114081  0.84409529    -0.20200
F4573       F  0.69857790  0.73614300  0.85032793    -0.19900
F4574       F  0.61534383  0.64363106  0.94169593    -0.19900
F4575       F  0.64084792  0.62092397  0.92702639    -0.20300
F4576       F  0.59284451  0.60748909  0.91616097    -0.22900
C4577       C  0.61126469  0.92607063  0.88534278    -0.05800
C4578       C  0.59924305  0.94450828  0.87804732     0.00200
C4579       C  0.60807845  0.97309331  0.88870905    -0.08400
C4580       C  0.63001156  0.98275926  0.90539803    -0.05800
C4581       C  0.64227416  0.96441243  0.91242772     0.00100
C4582       C  0.63143830  0.93475208  0.90300891    -0.08300
C4583       C  0.63966006  0.91152296  0.91209836     0.62100
H4584       H  0.60538232  0.90497054  0.87673404     0.12800
H4585       H  0.63742219  0.00486846  0.91321021     0.12800
C4586       C  0.59503570  0.99421181  0.88371801     0.62300
F4587       F  0.62203743  0.88249669  0.90287516    -0.22900
F4588       F  0.63398740  0.90852016  0.93395186    -0.20200
F4589       F  0.66871872  0.41723066  0.90801964    -0.19900
F4590       F  0.57188554  0.98236417  0.86836599    -0.19900
F4591       F  0.61887428  0.02250853  0.87674956    -0.20300
F4592       F  0.58247980  0.99893921  0.90225916    -0.22900
C4593       C  0.77247110  0.93745319  0.86401030    -0.05800
C4594       C  0.78317494  0.91609750  0.86540744     0.00200
C4595       C  0.78229042  0.90287402  0.88612433    -0.08400
C4596       C  0.77292975  0.91354207  0.90414736    -0.05800
C4597       C  0.76453615  0.93623554  0.90257374     0.00100
C4598       C  0.76345429  0.94797701  0.88218136    -0.08300
C4599       C  0.75336285  0.97197922  0.87959253     0.62100
H4600       H  0.77087732  0.94579868  0.84836222     0.12800
H4601       H  0.77211177  0.90413905  0.91991482     0.12800
C4602       C  0.79202986  0.87740166  0.88980934     0.62300
F4603       F  0.76467870  0.48898132  0.86264491    -0.22900
F4604       F  0.77940777  0.50190692  0.89683876    -0.20200
F4605       F  0.72252601  0.95938007  0.88552624    -0.19900
F4606       F  0.82163775  0.89499536  0.88007599    -0.19900
F4607       F  0.76031520  0.82257371  0.88066363    -0.20300
F4608       F  0.80451722  0.88553225  0.91081546    -0.22900
C4609       C  0.95825390  0.82230493  0.09658876    -0.05800
C4610       C  0.93832329  0.79182038  0.08930630     0.00200
C4611       C  0.91063104  0.77293327  0.10101332    -0.08400
C4612       C  0.90519571  0.78435472  0.12037682    -0.05800
C4613       C  0.92568047  0.81438641  0.12810058     0.00100
C4614       C  0.95231737  0.83409803  0.11563063    -0.08300
C4615       C  0.97434714  0.86757142  0.12211707     0.62100
H4616       H  0.97922045  0.83672975  0.08748494     0.12800
H4617       H  0.88466955  0.76969672  0.12971864     0.12800
C4618       C  0.88622662  0.74130947  0.09278523     0.62300
F4619       F  0.49712723  0.87797656  0.11061560    -0.22900
F4620       F  0.99148406  0.86864683  0.13984102    -0.20200
F4621       F  0.46183361  0.87738069  0.13329389    -0.19900
F4622       F  0.89653646  0.72044399  0.09536371    -0.19900
F4623       F  0.88049073  0.74308578  0.07128396    -0.20300
F4624       F  0.85830149  0.73020802  0.10371938    -0.22900
C4625       C  0.81732581  0.79090074  0.11380708    -0.05800
C4626       C  0.82788504  0.81121429  0.09619457     0.00200
C4627       C  0.85896701  0.83686090  0.09643125    -0.08400
C4628       C  0.87828339  0.84010310  0.11383685    -0.05800
C4629       C  0.86779282  0.81936257  0.13095823     0.00100
C4630       C  0.83654858  0.79470563  0.13139009    -0.08300
C4631       C  0.82330644  0.77243131  0.15023001     0.62100
H4632       H  0.79360894  0.77176353  0.11375793     0.12800
H4633       H  0.90189130  0.85932877  0.11444889     0.12800
C4634       C  0.87237348  0.86078604  0.07859918     0.62300
F4635       F  0.79388478  0.74789497  0.14581303    -0.22900
F4636       F  0.82074792  0.78751221  0.16810652    -0.20200
F4637       F  0.84236062  0.76043611  0.15502965    -0.19900
F4638       F  0.85441026  0.87467324  0.07615941    -0.19900
F4639       F  0.87318305  0.84674914  0.05958196    -0.20300
F4640       F  0.90248777  0.88407536  0.08298663    -0.22900
C4641       C  0.81092856  0.96109072  0.45010540    -0.05800
C4642       C  0.81672686  0.97846472  0.43122115     0.00200
C4643       C  0.80699960  0.00098840  0.43023492    -0.08400
C4644       C  0.80563057  0.51234623  0.45366033    -0.05800
C4645       C  0.78427794  0.98604996  0.46618817     0.00100
C4646       C  0.79437119  0.96398459  0.46751044    -0.08300
C4647       C  0.78833662  0.94261495  0.48646737     0.62100
H4648       H  0.81827973  0.94396772  0.45096745     0.12800
H4649       H  0.80555784  0.53379145  0.45637283     0.12800
C4650       C  0.84209098  0.53809345  0.42260225     0.62300
F4651       F  0.81644336  0.95032831  0.49602877    -0.22900
F4652       F  0.77458255  0.91229906  0.47925379    -0.20200
F4653       F  0.76901659  0.94396834  0.50189583    -0.19900
F4654       F  0.82854883  0.53367121  0.40258248    -0.19900
F4655       F  0.87212388  0.54328417  0.42053121    -0.20300
F4656       F  0.84405819  0.56458152  0.43143362    -0.22900
C4657       C  0.75209309  0.80153791  0.42765864    -0.05800
C4658       C  0.78316881  0.82406852  0.42546454     0.00200
C4659       C  0.80494900  0.82708536  0.44111890    -0.08400
C4660       C  0.79470944  0.80690945  0.45876264    -0.05800
C4661       C  0.76325168  0.78370080  0.46152659     0.00100
C4662       C  0.74124867  0.78095202  0.44520302    -0.08300
C4663       C  0.70544317  0.75545031  0.44546650     0.62100
H4664       H  0.73628739  0.79955499  0.41498258     0.12800
H4665       H  0.81191436  0.80837013  0.47000346     0.12800
C4666       C  0.83915875  0.85119849  0.43874765     0.62300
F4667       F  0.69262981  0.77257386  0.43627628    -0.22900
F4668       F  0.70049938  0.76231875  0.46666539    -0.20200
F4669       F  0.68407850  0.70145092  0.43479119    -0.19900
F4670       F  0.84246212  0.88036398  0.43724378    -0.19900
F4671       F  0.85095357  0.84512425  0.42036687    -0.20300
F4672       F  0.85663794  0.85127377  0.45603150    -0.22900
C4673       C  0.87149641  0.88461339  0.22432789    -0.05800
C4674       C  0.85686360  0.86158445  0.24010765     0.00200
C4675       C  0.85806111  0.83360181  0.23799351    -0.08400
C4676       C  0.87411350  0.83041875  0.22043998    -0.05800
C4677       C  0.88897330  0.85370369  0.20517773     0.00100
C4678       C  0.88763056  0.88125829  0.20695577    -0.08300
C4679       C  0.90285906  0.90798979  0.19127002     0.62100
H4680       H  0.87100246  0.90605249  0.22568742     0.12800
H4681       H  0.87470337  0.80920717  0.21814251     0.12800
C4682       C  0.84287904  0.80691069  0.25382343     0.62300
F4683       F  0.92318805  0.93455085  0.20239145    -0.22900
F4684       F  0.88007573  0.91225105  0.18186514    -0.20200
F4685       F  0.91955650  0.90371335  0.17513383    -0.19900
F4686       F  0.81156722  0.79734313  0.25593443    -0.19900
F4687       F  0.85751245  0.81611776  0.27352416    -0.20300
F4688       F  0.84500472  0.78146131  0.24716802    -0.22900
C4689       C  0.55177676  0.83987510  0.44418836    -0.05800
C4690       C  0.52988955  0.83116612  0.42749056     0.00200
C4691       C  0.50143476  0.80222741  0.42919573    -0.08400
C4692       C  0.49684670  0.78324058  0.44715432    -0.05800
C4693       C  0.51958795  0.79154109  0.46305678     0.00100
C4694       C  0.54772543  0.82025201  0.46146679    -0.08300
C4695       C  0.57437890  0.83095460  0.47735144     0.62100
H4696       H  0.57321326  0.86194246  0.44330267     0.12800
H4697       H  0.47545796  0.76132442  0.44887213     0.12800
C4698       C  0.47598381  0.79069326  0.41225584     0.62300
F4699       F  0.60264673  0.84657735  0.46674334    -0.22900
F4700       F  0.57407502  0.80661115  0.48803379    -0.20200
F4701       F  0.57260583  0.85081046  0.49212392    -0.19900
F4702       F  0.48724537  0.78673406  0.39286241    -0.19900
F4703       F  0.46573043  0.81173245  0.40999766    -0.20300
F4704       F  0.95165807  0.76304403  0.41869189    -0.22900
C4705       C  0.68547026  0.93400000  0.43497244    -0.05800
C4706       C  0.68759374  0.95625804  0.42018989     0.00200
C4707       C  0.70708234  0.98827744  0.42542603    -0.08400
C4708       C  0.72193265  0.99629884  0.44559997    -0.05800
C4709       C  0.71923084  0.97394764  0.46031679     0.00100
C4710       C  0.70081829  0.94219177  0.45492636    -0.08300
C4711       C  0.69582927  0.91587336  0.46956378     0.62100
H4712       H  0.67092606  0.90961744  0.43115734     0.12800
H4713       H  0.73596586  0.02041413  0.45020129     0.12800
C4714       C  0.71215123  0.01422847  0.41025944     0.62300
F4715       F  0.70738476  0.89878783  0.45967236    -0.22900
F4716       F  0.66427847  0.89688593  0.47310360    -0.20200
F4717       F  0.71005308  0.92561173  0.48929655    -0.19900
F4718       F  0.68407935  0.01271822  0.40590133    -0.19900
F4719       F  0.72555821  0.01173145  0.39138990    -0.20300
F4720       F  0.73188736  0.04324684  0.41886604    -0.22900
C4721       C  0.96169289  0.88594092  0.21147014    -0.05800
C4722       C  0.94945211  0.85488563  0.20498366     0.00200
C4723       C  0.95454047  0.83478046  0.21819286    -0.08400
C4724       C  0.97255870  0.84686747  0.23700651    -0.05800
C4725       C  0.98507674  0.87804840  0.24332840     0.00100
C4726       C  0.97856941  0.89768064  0.23070745    -0.08300
C4727       C  0.48573681  0.92889153  0.23659602     0.62100
H4728       H  0.95730350  0.90094566  0.20144973     0.12800
H4729       H  0.97759741  0.83202199  0.24677032     0.12800
C4730       C  0.94091083  0.80068693  0.21267969     0.62300
F4731       F  0.47150532  0.94068651  0.22367992    -0.22900
F4732       F  0.51745100  0.94762687  0.23429792    -0.20200
F4733       F  0.47746730  0.93027019  0.25761731    -0.19900
F4734       F  0.95505009  0.79755204  0.19445750    -0.19900
F4735       F  0.90924132  0.78706342  0.20914264    -0.20300
F4736       F  0.94535500  0.78466210  0.22905488    -0.22900
C4737       C  0.98564849  0.64653251  0.09578599    -0.05800
C4738       C  0.97536139  0.66834351  0.09497565     0.00200
C4739       C  0.95371097  0.66652541  0.11092489    -0.08400
C4740       C  0.94303333  0.64284006  0.12638187    -0.05800
C4741       C  0.95186575  0.62020351  0.12611714     0.00100
C4742       C  0.97432009  0.62256957  0.11106983    -0.08300
C4743       C  0.98628333  0.59988612  0.11123994     0.62100
H4744       H  0.50302895  0.65058548  0.08587102     0.12800
H4745       H  0.92707794  0.64139288  0.13884130     0.12800
C4746       C  0.94081239  0.68849068  0.11160485     0.62300
F4747       F  0.46565087  0.57346332  0.11191572    -0.22900
F4748       F  0.99993807  0.60123864  0.13081723    -0.20200
F4749       F  0.00824699  0.60622613  0.09535547    -0.19900
F4750       F  0.92381668  0.68478789  0.09318647    -0.19900
F4751       F  0.96496247  0.71874693  0.11333509    -0.20300
F4752       F  0.92113957  0.68289000  0.12892440    -0.22900
C4753       C  0.86448143  0.52208546  0.09252150    -0.05800
C4754       C  0.85138866  0.53998490  0.08580239     0.00200
C4755       C  0.85939138  0.56775531  0.09744019    -0.08400
C4756       C  0.87859738  0.57537182  0.11570227    -0.05800
C4757       C  0.89197795  0.55779521  0.12224070     0.00100
C4758       C  0.88485707  0.53054859  0.11030278    -0.08300
C4759       C  0.89790123  0.50943849  0.11521448     0.62100
H4760       H  0.85956807  0.00331058  0.08196524     0.12800
H4761       H  0.88290978  0.59516560  0.12539959     0.12800
C4762       C  0.84853483  0.59005383  0.09065739     0.62300
F4763       F  0.87344709  0.98102766  0.11809111    -0.22900
F4764       F  0.92013892  0.52067988  0.13114927    -0.20200
F4765       F  0.91156222  0.50565359  0.09690410    -0.19900
F4766       F  0.81691522  0.57668047  0.09405642    -0.19900
F4767       F  0.85520472  0.59738818  0.06920121    -0.20300
F4768       F  0.86304898  0.61751009  0.10223423    -0.22900
C4769       C  0.88867129  0.54607222  0.21495865    -0.05800
C4770       C  0.90546490  0.53908299  0.19997405     0.00200
C4771       C  0.91476220  0.51740125  0.20552189    -0.08400
C4772       C  0.90727403  0.50389832  0.22604767    -0.05800
C4773       C  0.89114913  0.51137178  0.24154288     0.00100
C4774       C  0.88129213  0.53276970  0.23564432    -0.08300
C4775       C  0.86277715  0.54157598  0.25072624     0.62100
H4776       H  0.88203628  0.56288731  0.21038533     0.12800
H4777       H  0.91440613  0.48720523  0.22997140     0.12800
C4778       C  0.93227870  0.50726952  0.19051203     0.62300
F4779       F  0.85464012  0.56155542  0.24122272    -0.22900
F4780       F  0.88041355  0.55630499  0.26869006    -0.20200
F4781       F  0.82332023  0.00654824  0.25421468    -0.19900
F4782       F  0.95867598  0.51092521  0.20066668    -0.19900
F4783       F  0.94146853  0.52359118  0.17155765    -0.20300
F4784       F  0.91326118  0.47636977  0.18546882    -0.22900
C4785       C  0.68274965  0.63089427  0.12587160    -0.05800
C4786       C  0.70809664  0.63238637  0.13686406     0.00200
C4787       C  0.73848977  0.65065049  0.12845799    -0.08400
C4788       C  0.74201208  0.66334502  0.10794367    -0.05800
C4789       C  0.71652931  0.66054715  0.09626440     0.00100
C4790       C  0.68641594  0.64517783  0.10581426    -0.08300
C4791       C  0.65841991  0.64467561  0.09548028     0.62100
H4792       H  0.65975428  0.61729140  0.13281074     0.12800
H4793       H  0.76526037  0.67650434  0.10124813     0.12800
C4794       C  0.76792528  0.65844453  0.14063877     0.62300
F4795       F  0.63250944  0.63129522  0.10871593    -0.22900
F4796       F  0.65068743  0.62782649  0.07657927    -0.20200
F4797       F  0.66523337  0.67462953  0.09124143    -0.19900
F4798       F  0.78305789  0.64497318  0.13047164    -0.19900
F4799       F  0.76219756  0.64886495  0.16172383    -0.20300
F4800       F  0.78750118  0.69019246  0.14080865    -0.22900
C4801       C  0.74529877  0.56873540  0.10735207    -0.05800
C4802       C  0.72677360  0.56646203  0.08962284     0.00200
C4803       C  0.69972745  0.56895992  0.09295354    -0.08400
C4804       C  0.69177504  0.57216942  0.11400815    -0.05800
C4805       C  0.71080672  0.57528566  0.13149258     0.00100
C4806       C  0.73786969  0.57305376  0.12831466    -0.08300
C4807       C  0.75816483  0.57356884  0.14676434     0.62100
H4808       H  0.76492943  0.56533511  0.10490846     0.12800
H4809       H  0.67047196  0.57256475  0.11706852     0.12800
C4810       C  0.67925924  0.56869693  0.07475172     0.62300
F4811       F  0.78599894  0.57661196  0.13949164    -0.22900
F4812       F  0.74267440  0.54620877  0.15805998    -0.20200
F4813       F  0.76529479  0.59800332  0.16051568    -0.19900
F4814       F  0.66167843  0.53909502  0.06655298    -0.19900
F4815       F  0.69754316  0.58868707  0.05872903    -0.20300
F4816       F  0.65875175  0.57816663  0.08162538    -0.22900
C4817       C  0.64363721  0.51665497  0.20230739    -0.05800
C4818       C  0.67278305  0.54330888  0.20548734     0.00200
C4819       C  0.69122611  0.54472016  0.22309443    -0.08400
C4820       C  0.67822825  0.52097133  0.23836516    -0.05800
C4821       C  0.64542159  0.99983908  0.23681986     0.00100
C4822       C  0.62875448  0.99484088  0.21727272    -0.08300
C4823       C  0.59692809  0.96674496  0.21345459     0.62100
H4824       H  0.63062105  0.51545405  0.18806310     0.12800
H4825       H  0.69182451  0.52307478  0.25245841     0.12800
C4826       C  0.72428528  0.57132374  0.22603887     0.62300
F4827       F  0.58724028  0.96481400  0.19240704    -0.22900
F4828       F  0.57540338  0.96870647  0.22644273    -0.20200
F4829       F  0.59761227  0.93995096  0.21791843    -0.19900
F4830       F  0.72369487  0.59784703  0.23152117    -0.19900
F4831       F  0.74107031  0.57627871  0.20726865    -0.20300
F4832       F  0.73976308  0.56544467  0.24214550    -0.22900
C4833       C  0.49712459  0.69181966  0.42826710    -0.05800
C4834       C  0.52519740  0.71029112  0.41732801     0.00200
C4835       C  0.54685509  0.73975584  0.42598919    -0.08400
C4836       C  0.54173967  0.74765319  0.44662380    -0.05800
C4837       C  0.51420540  0.72901334  0.45799774     0.00100
C4838       C  0.49080663  0.70107482  0.44830400    -0.08300
C4839       C  0.96445942  0.68578896  0.46116196     0.62100
H4840       H  0.48040452  0.66982239  0.42118385     0.12800
H4841       H  0.55934364  0.76897605  0.45395910     0.12800
C4842       C  0.57456302  0.76377775  0.41319713     0.62300
F4843       F  0.43838225  0.65870508  0.44473507    -0.22900
F4844       F  0.44661543  0.69987305  0.46431838    -0.20200
F4845       F  0.96767795  0.67086169  0.47871016    -0.19900
F4846       F  0.56561906  0.76490635  0.39237900    -0.19900
F4847       F  0.59799984  0.75655155  0.41286225    -0.20300
F4848       F  0.58655248  0.79312835  0.42200854    -0.22900
C4849       C  0.71119428  0.73468780  0.41225659    -0.05800
C4850       C  0.67149901  0.72750047  0.41622702     0.00200
C4851       C  0.65269104  0.71555568  0.44295216    -0.08400
C4852       C  0.67343688  0.70926294  0.46507949    -0.05800
C4853       C  0.71373701  0.71733626  0.46082794     0.00100
C4854       C  0.73185885  0.72824505  0.43409072    -0.08300
C4855       C  0.76294782  0.73120426  0.42941882     0.62100
H4856       H  0.72162176  0.74052805  0.39658332     0.12800
H4857       H  0.66343039  0.70440163  0.48123909     0.12800
C4858       C  0.62062354  0.71031841  0.44670700     0.62300
F4859       F  0.75913131  0.70915863  0.41434524    -0.22900
F4860       F  0.77563187  0.72664551  0.44778066    -0.20200
F4861       F  0.78307402  0.76019384  0.42129077    -0.19900
F4862       F  0.61097308  0.69982180  0.46733892    -0.19900
F4863       F  0.60004114  0.68851621  0.43235244    -0.20300
F4864       F  0.62081871  0.73787860  0.44410221    -0.22900
C4865       C  0.98514894  0.58508669  0.20368064    -0.05800
C4866       C  0.96441364  0.59613127  0.20111299     0.00200
C4867       C  0.96043911  0.61295571  0.21797599    -0.08400
C4868       C  0.97605268  0.61630600  0.23744941    -0.05800
C4869       C  0.99623047  0.60430903  0.24055762     0.00100
C4870       C  0.00142639  0.58900637  0.22295531    -0.08300
C4871       C  0.52379831  0.57283999  0.22225079     0.62100
H4872       H  0.98832873  0.57307492  0.19024704     0.12800
H4873       H  0.97279298  0.62921596  0.25026653     0.12800
C4874       C  0.94091978  0.62859695  0.21628884     0.62300
F4875       F  0.52379811  0.55884181  0.20298477    -0.22900
F4876       F  0.51630937  0.55119947  0.23829934    -0.20200
F4877       F  0.55352947  0.59757064  0.22532085    -0.19900
F4878       F  0.91909939  0.61827507  0.23262121    -0.19900
F4879       F  0.92534854  0.62314041  0.19700199    -0.20300
F4880       F  0.96019508  0.66025333  0.21852533    -0.22900
C4881       C  0.64438821  0.58343976  0.22114803    -0.05800
C4882       C  0.67344147  0.60453474  0.21232915     0.00200
C4883       C  0.69110999  0.63433545  0.22196957    -0.08400
C4884       C  0.67746255  0.64285487  0.23847065    -0.05800
C4885       C  0.64826836  0.62179868  0.24704924     0.00100
C4886       C  0.63244869  0.59087815  0.23925861    -0.08300
C4887       C  0.60417324  0.56531320  0.25062722     0.62100
H4888       H  0.63060924  0.56109329  0.21357473     0.12800
H4889       H  0.69020125  0.66605135  0.24516897     0.12800
C4890       C  0.72447805  0.65782805  0.21588641     0.62300
F4891       F  0.59653193  0.53628112  0.24283161    -0.22900
F4892       F  0.57877512  0.56920303  0.24783778    -0.20200
F4893       F  0.61031321  0.56594062  0.27231836    -0.19900
F4894       F  0.72484879  0.68201157  0.20490059    -0.19900
F4895       F  0.73863228  0.64534193  0.20343269    -0.20300
F4896       F  0.74218414  0.66945923  0.23430467    -0.22900
loop_ 
_geom_bond_atom_site_label_1 
_geom_bond_atom_site_label_2 
_geom_bond_distance 
_geom_bond_site_symmetry_2 
_ccdc_geom_bond_type 
O1           Mg3   2.169       .  S
O1           Mg9   2.145       .  S
O1           C36   1.236       .  S
C2           O15   1.233       .  S
C2           O39   1.270       .  A
C2           H41   1.081       .  S
Mg3          O32   2.147       .  S
Mg3          O47   2.312   1_455  S
Mg3          O43   2.324       .  S
Mg3          O14   2.316       .  S
O4          Mg46   2.172       .  S
O4          Mg29   2.178       .  S
O4           C25   1.238       .  S
O5           C36   1.274       .  A
O5          Mg29   2.322       .  S
C6            O8   1.260       .  A
C6           O20   1.259       .  A
C6         C1178   1.454       .  S
O7           C35   1.272       .  A
O7           Mg9   2.311       .  S
O8          Mg40   2.270       .  S
Mg9          O15   2.190       .  S
Mg9          O11   2.294       .  S
Mg9        O2471   2.295   1_455  S
C10          O48   1.266       .  A
C10          O16   1.279       .  A
C10         C594   1.478       .  S
O11          C18   1.272       .  A
H12          C25   1.081       .  S
C13          O27   1.239       .  S
C13          O28   1.275       .  A
C13          H38   1.081       .  S
O14          C37   1.271       .  A
O15         Mg29   2.154       .  S
O16         Mg46   2.346       .  S
C17          O30   1.271       .  A
C17          O22   1.279       .  A
C17        C1213   1.490       .  S
C18          O45   1.273       .  A
C18        C3645   1.509   1_455  S
Mg19         O26   2.163       .  S
Mg19         O27   2.121       .  S
Mg19         O20   2.255       .  S
Mg19         O21   2.320       .  S
Mg19         O48   2.275       .  S
O21          C25   1.274       .  A
O22         Mg29   2.340       .  S
O23          C42   1.272       .  A
O23       Mg2457   2.302       .  S
O24          C44   1.268       .  A
O24         Mg40   2.276       .  S
O26         Mg40   2.134       .  S
O26          C37   1.235       .  S
O27         Mg46   2.127       .  S
O28         Mg40   2.326       .  S
Mg29         O45   2.302       .  S
O30         Mg46   2.254       .  S
H31          C36   1.081   1_655  S
O32         Mg40   2.145       .  S
O32          C35   1.236       .  S
H33          C35   1.081       .  S
H34          C37   1.081       .  S
O39         Mg46   2.311       .  S
C42        O2495   1.277       .  A
C42         C562   1.475       .  S
O43          C44   1.276       .  A
C44        C1162   1.487       .  S
O47        C2490   1.277       .  A
C49        C1210   1.493       .  S
C49          C50   1.424       .  A
C49          C54   1.407       .  A
C50        C1146   1.484       .  S
C50          C51   1.398       .  A
C51          H56   1.082       .  S
C51          C52   1.394       .  A
C52        C1133   1.482       .  S
C52          C53   1.414       .  A
C53        C1114   1.484       .  S
C53          C54   1.401       .  A
C54          H55   1.084       .  S
C57        C1194   1.489       .  S
C57          C58   1.407       .  A
C57          C62   1.402       .  A
C58        C1098   1.484       .  S
C58          C59   1.404       .  A
C59          H64   1.082       .  S
C59          C60   1.412       .  A
C60        C1085   1.506       .  S
C60          C61   1.430       .  A
C61        C1069   1.493       .  S
C61          C62   1.410       .  A
C62          H63   1.084       .  S
O65         Mg67   2.143       .  S
O65         Mg73   2.146       .  S
O65         C100   1.233       .  S
C66          O79   1.235       .  S
C66         O103   1.269       .  A
C66         H105   1.081       .  S
Mg67         O96   2.164       .  S
Mg67        O107   2.209       .  S
Mg67         O78   2.300       .  S
Mg67       O1335   2.308       .  S
O68        Mg110   2.155       .  S
O68         Mg93   2.161       .  S
O68          C89   1.236       .  S
O69         C100   1.267       .  A
O69         Mg93   2.293       .  S
C70          O72   1.277       .  A
C70          O84   1.282   1_455  A
C70        C3501   1.509   1_455  S
O71          C99   1.272       .  A
O71         Mg73   2.309       .  S
O72        Mg104   2.308       .  S
Mg73         O79   2.150       .  S
Mg73         O75   2.331       .  S
Mg73       O1311   2.284       .  S
C74         O112   1.274       .  A
C74        O2528   1.268       .  A
C74         C569   1.460       .  S
O75          C82   1.277       .  A
H76          C89   1.081       .  S
C77          O91   1.233       .  S
C77          O92   1.269       .  A
C77         H102   1.081   1_455  S
O78         C101   1.271       .  A
O79         Mg93   2.164       .  S
O80        C2522   1.267       .  A
O80        Mg110   2.282   1_655  S
C81          O94   1.268       .  A
C81          O86   1.276       .  A
C81        C1018   1.505       .  S
C82         O109   1.275       .  A
C82        C1034   1.503       .  S
Mg83         O90   2.158       .  S
Mg83         O91   2.155       .  S
Mg83         O84   2.349   1_455  S
Mg83         O85   2.315       .  S
Mg83       O2560   2.278   1_455  S
O85          C89   1.272       .  A
O86         Mg93   2.306       .  S
O87         C106   1.274       .  A
O87       Mg1297   2.278   1_545  S
O88         C108   1.276       .  A
O88        Mg104   2.329       .  S
O90        Mg104   2.171       .  S
O90         C101   1.237       .  S
O91        Mg110   2.183       .  S
O92        Mg104   2.307       .  S
Mg93        O109   2.273       .  S
O94        Mg110   2.270       .  S
H95         C100   1.081       .  S
O96        Mg104   2.175       .  S
O96          C99   1.236       .  S
H97          C99   1.081       .  S
H98         C101   1.081       .  S
O103       Mg110   2.296       .  S
C106        O111   1.268       .  A
C106        C596   1.461       .  S
O107        C108   1.266       .  A
C108       C1149   1.491       .  S
O111      Mg1291   2.287   1_545  S
O112      Mg2531   2.281       .  S
O113       Mg115   2.156       .  S
O113       Mg121   2.155       .  S
O113        C148   1.233       .  S
C114        O127   1.236       .  S
C114        O151   1.272       .  A
C114        H153   1.081       .  S
Mg115       O144   2.146       .  S
Mg115       O159   2.284       .  S
Mg115       O155   2.235       .  S
Mg115       O126   2.308       .  S
O116       Mg158   2.152       .  S
O116       Mg141   2.156       .  S
O116        C137   1.234       .  S
O117        C148   1.269       .  A
O117       Mg141   2.303       .  S
C118        O120   1.271       .  A
C118        O132   1.278       .  A
C118       C2325   1.507       .  S
O119        C147   1.269       .  A
O119       Mg121   2.308       .  S
O120       Mg152   2.257       .  S
Mg121       O127   2.165       .  S
Mg121       O135   2.295       .  S
Mg121       O123   2.315       .  S
C122        O160   1.271       .  A
C122       O1352   1.272       .  A
C122        C558   1.460       .  S
O123        C130   1.277       .  A
H124        C137   1.081       .  S
C125        O139   1.235       .  S
C125        O140   1.270       .  A
C125        H150   1.081       .  S
O126        C149   1.271       .  A
O127       Mg141   2.164       .  S
O128       C1346   1.270       .  A
O128       Mg158   2.298       .  S
C129        O142   1.268       .  A
C129        O134   1.275       .  A
C129        C970   1.494       .  S
C130        O157   1.271       .  A
C130        C986   1.476       .  S
Mg131       O138   2.140       .  S
Mg131       O139   2.158       .  S
Mg131       O132   2.342       .  S
Mg131       O133   2.308       .  S
Mg131      O1384   2.263       .  S
O133        C137   1.270       .  A
O134       Mg141   2.303       .  S
O135        C154   1.275       .  A
O136        C156   1.270       .  A
O136       Mg152   2.274       .  S
O138       Mg152   2.144       .  S
O138        C149   1.236       .  S
O139       Mg158   2.168       .  S
O140       Mg152   2.303       .  S
Mg141       O157   2.266       .  S
O142       Mg158   2.261       .  S
H143        C148   1.081       .  S
O144       Mg152   2.153       .  S
O144        C147   1.234       .  S
H145        C147   1.081       .  S
H146        C149   1.081       .  S
O151       Mg158   2.308       .  S
C154        O159   1.267       .  A
C154        C570   1.466       .  S
O155        C156   1.262       .  A
C156       C1002   1.490       .  S
O160      Mg1355   2.255   1_545  S
C161       C1005   1.469       .  S
C161        C162   1.412       .  A
C161        C166   1.387       .  A
C162       C1050   1.504       .  S
C162        C163   1.417       .  A
C163        H168   1.080       .  S
C163        C164   1.420       .  A
C164        C941   1.501       .  S
C164        C165   1.419       .  A
C165        C957   1.478       .  S
C165        C166   1.386       .  A
C166        H167   1.085       .  S
O169       Mg171   2.135   1_554  S
O169      Mg1401   2.169   1_545  S
O169        C204   1.236       .  S
C170        O183   1.234       .  S
C170        O207   1.270       .  A
C170        H209   1.081       .  S
Mg171      O1424   2.163   1_545  S
Mg171       O182   2.322       .  S
Mg171      O1439   2.338   1_545  S
Mg171      O1435   2.283   1_545  S
O172       Mg197   2.134       .  S
O172      Mg1438   2.155   1_545  S
O172        C193   1.232       .  S
O173        C204   1.270       .  A
O173       Mg197   2.293       .  S
C174        O176   1.265       .  A
C174        O188   1.273       .  A
C174        C925   1.474       .  S
O175        C203   1.266   1_554  A
O175       Mg177   2.289       .  S
O176       Mg208   2.246       .  S
Mg177       O183   2.179       .  S
Mg177      O1393   2.172       .  S
Mg177       O191   2.313       .  S
Mg177      O1403   2.235       .  S
C178        O216   1.274       .  A
C178        O184   1.278   1_556  A
C178       C1738   1.473       .  S
O179        C186   1.266       .  A
O179      Mg1401   2.248   1_545  S
H180        C193   1.081       .  S
C181        O195   1.237       .  S
C181        O196   1.273       .  A
C181        H206   1.081   1_556  S
O182        C205   1.272       .  A
O183      Mg1421   2.175       .  S
O184      Mg1438   2.310   1_545  S
C185        O198   1.279       .  A
C185        O190   1.273       .  A
C185       C1082   1.499       .  S
C186        O213   1.268       .  A
C186       C1130   1.475       .  S
Mg187       O194   2.191       .  S
Mg187      O1419   2.180   1_545  S
Mg187       O189   2.290       .  S
Mg187       O216   2.305       .  S
Mg187      O1412   2.284   1_545  S
O188      Mg1411   2.300       .  S
O189        C193   1.266   1_556  A
O190       Mg197   2.300       .  S
O191        C210   1.273       .  A
O192        C212   1.271       .  A
O192       Mg208   2.285       .  S
O194      Mg1432   2.157   1_545  S
O194        C205   1.235       .  S
O195       Mg214   2.171   1_556  S
O195      Mg1411   2.172       .  S
O196       Mg208   2.314       .  S
Mg197      O1407   2.170   1_545  S
Mg197       O213   2.235       .  S
O198      Mg1438   2.325   1_545  S
H199        C204   1.081   1_556  S
O200       Mg208   2.147       .  S
O200      Mg1395   2.158       .  S
O200        C203   1.232       .  S
H201        C203   1.081       .  S
H202        C205   1.081       .  S
O207       Mg214   2.308       .  S
Mg208      O1418   2.151       .  S
C210        O215   1.278   1_554  A
C210        C546   1.482       .  S
O211        C212   1.272       .  A
O211      Mg1395   2.277       .  S
C212        C909   1.482       .  S
Mg214      O1396   2.153       .  S
Mg214      O1408   2.312       .  S
Mg214      O1422   2.323       .  S
O215      Mg1395   2.326       .  S
O217       Mg219   2.123   1_556  S
O217       Mg225   2.180       .  S
O217        C252   1.235       .  S
C218        O231   1.235       .  S
C218        O255   1.269       .  A
C218        H257   1.081       .  S
Mg219       O248   2.148       .  S
Mg219       O263   2.294       .  S
Mg219       O259   2.233       .  S
Mg219       O230   2.312       .  S
O220       Mg262   2.145       .  S
O220       Mg245   2.112       .  S
O220        C241   1.231       .  S
O221        C252   1.267       .  A
O221       Mg245   2.280       .  S
C222        O224   1.267       .  A
C222        O236   1.276       .  A
C222       C1117   1.482       .  S
O223        C251   1.264   1_556  A
O223       Mg225   2.286       .  S
O224       Mg256   2.216       .  S
Mg225       O231   2.146       .  S
Mg225       O239   2.265       .  S
Mg225       O227   2.277       .  S
C226        O264   1.277       .  A
C226        O232   1.270   1_554  A
C226        C548   1.458       .  S
O227        C234   1.270       .  A
H228        C241   1.081       .  S
C229        O243   1.236       .  S
C229        O244   1.270       .  A
C229        H254   1.081       .  S
O230        C253   1.272       .  A
O231       Mg245   2.168       .  S
O232       Mg262   2.276       .  S
C233        O246   1.269       .  A
C233        O238   1.270       .  A
C233        C890   1.495       .  S
C234        O261   1.262       .  A
C234        C874   1.442       .  S
Mg235       O242   2.162       .  S
Mg235       O243   2.174       .  S
Mg235       O236   2.321       .  S
Mg235       O237   2.285       .  S
Mg235       O264   2.287       .  S
O237        C241   1.264   1_554  A
O238       Mg245   2.270       .  S
O239        C258   1.273       .  A
O240        C260   1.272       .  A
O240       Mg256   2.283       .  S
O242       Mg256   2.149       .  S
O242        C253   1.236       .  S
O243       Mg262   2.148   1_554  S
O244       Mg256   2.298       .  S
Mg245       O261   2.197       .  S
O246       Mg262   2.273       .  S
H247        C252   1.081   1_554  S
O248       Mg256   2.132       .  S
O248        C251   1.231       .  S
H249        C251   1.081       .  S
H250        C253   1.081       .  S
O255       Mg262   2.296       .  S
C258        O263   1.271   1_556  A
C258        C521   1.459       .  S
O259        C260   1.264       .  A
C260        C954   1.490       .  S
O265       Mg267   2.179   1_556  S
O265      Mg2721   2.177   1_455  S
O265        C300   1.235       .  S
C266        O279   1.233       .  S
C266        O303   1.267       .  A
C266        H305   1.081       .  S
Mg267      O2744   2.167   1_455  S
Mg267       O278   2.299       .  S
Mg267      O2759   2.275   1_455  S
Mg267      O2755   2.270   1_455  S
O268       Mg293   2.167       .  S
O268      Mg2758   2.175   1_455  S
O268        C289   1.235       .  S
O269        C300   1.270       .  A
O269       Mg293   2.307       .  S
C270        O272   1.275       .  A
C270        O284   1.280       .  A
C270        C938   1.497       .  S
O271        C299   1.270   1_556  A
O271       Mg273   2.299       .  S
O272       Mg304   2.287       .  S
Mg273       O279   2.160       .  S
Mg273      O2713   2.175       .  S
Mg273       O287   2.293       .  S
Mg273      O2723   2.323       .  S
C274        O312   1.274   1_556  A
C274        O280   1.268       .  A
C274        C522   1.461       .  S
O275        C282   1.282       .  A
O275      Mg2721   2.344   1_455  S
H276        C289   1.081       .  S
C277        O291   1.234       .  S
C277        O292   1.269       .  A
C277        H302   1.081   1_554  S
O278        C301   1.269       .  A
O279      Mg2741   2.167       .  S
O280      Mg2758   2.273       .  S
C281        O294   1.272   1_455  A
C281        O286   1.279       .  A
C281        C845   1.513       .  S
C282        O309   1.278       .  A
C282        C858   1.506       .  S
Mg283       O290   2.159   1_655  S
Mg283      O2739   2.181       .  S
Mg283       O285   2.299   1_655  S
Mg283       O312   2.278       .  S
Mg283      O2732   2.338       .  S
O284      Mg2731   2.335       .  S
O285        C289   1.269   1_554  A
O286       Mg293   2.340       .  S
O287        C306   1.275   1_556  A
O288        C308   1.277       .  A
O288       Mg304   2.334       .  S
O290      Mg2752   2.163   1_455  S
O290        C301   1.234       .  S
O291       Mg310   2.172   1_554  S
O291      Mg2731   2.180       .  S
O292       Mg304   2.303       .  S
Mg293      O2727   2.161   1_455  S
Mg293       O309   2.311       .  S
O294      Mg2758   2.266       .  S
H295        C300   1.081   1_554  S
O296       Mg304   2.163       .  S
O296      Mg2715   2.174       .  S
O296        C299   1.235       .  S
H297        C299   1.081       .  S
H298        C301   1.081       .  S
O303       Mg310   2.292       .  S
Mg304      O2738   2.159       .  S
C306        O311   1.267       .  A
C306       C2958   1.467       .  S
O307        C308   1.272       .  A
O307      Mg2715   2.254       .  S
C308       C1066   1.510       .  S
Mg310      O2716   2.170       .  S
Mg310      O2728   2.268       .  S
Mg310      O2742   2.258       .  S
O311      Mg2715   2.275       .  S
O313       Mg315   2.150       .  S
O313       Mg321   2.175       .  S
O313        C348   1.236       .  S
C314        O327   1.236       .  S
C314        O351   1.272       .  A
C314        H353   1.081       .  S
Mg315       O344   2.166       .  S
Mg315       O359   2.324   1_545  S
Mg315       O355   2.313       .  S
Mg315       O326   2.304       .  S
O316       Mg358   2.159       .  S
O316       Mg341   2.175       .  S
O316        C337   1.234       .  S
O317        C348   1.270       .  A
O317       Mg341   2.295       .  S
C318        O320   1.267       .  A
C318        O332   1.272       .  A
C318        C826   1.474       .  S
O319        C347   1.266       .  A
O319       Mg321   2.289       .  S
O320       Mg352   2.253       .  S
Mg321       O327   2.161       .  S
Mg321       O323   2.297       .  S
Mg321      O1559   2.272   1_545  S
C322        O360   1.272       .  A
C322        O328   1.280       .  A
C322        C618   1.483       .  S
O323        C330   1.270       .  A
H324        C337   1.081       .  S
C325        O339   1.237       .  S
C325        O340   1.272       .  A
C325        H350   1.081       .  S
O326        C349   1.271       .  A
O327       Mg341   2.153       .  S
O328       Mg358   2.346       .  S
C329        O342   1.272       .  A
C329        O334   1.270       .  A
C329        C794   1.478       .  S
C330        O357   1.273       .  A
C330       C2005   1.505   1_545  S
Mg331       O338   2.164       .  S
Mg331       O339   2.155       .  S
Mg331       O332   2.276       .  S
Mg331       O333   2.308       .  S
Mg331       O360   2.298       .  S
O333        C337   1.270       .  A
O334       Mg341   2.280       .  S
O335        C354   1.269       .  A
O335      Mg1545   2.263       .  S
O336        C356   1.271       .  A
O336       Mg352   2.287       .  S
O338       Mg352   2.158       .  S
O338        C349   1.236       .  S
O339       Mg358   2.140       .  S
O340       Mg352   2.306       .  S
Mg341       O357   2.289       .  S
O342       Mg358   2.272       .  S
H343        C348   1.081   1_565  S
O344       Mg352   2.141       .  S
O344        C347   1.232       .  S
H345        C347   1.081       .  S
H346        C349   1.081       .  S
O351       Mg358   2.319       .  S
C354       O1583   1.279       .  A
C354        C606   1.464       .  S
O355        C356   1.278       .  A
C356        C810   1.500       .  S
O359       C1578   1.280       .  A
C361        C893   1.484       .  S
C361        C362   1.416       .  A
C361        C366   1.401       .  A
C362        C861   1.503       .  S
C362        C363   1.416       .  A
C363        H368   1.083       .  S
C363        C364   1.415       .  A
C364        C762   1.504       .  S
C364        C365   1.421       .  A
C365        C797   1.489       .  S
C365        C366   1.400       .  A
C366        H367   1.084       .  S
C369        C906   1.492       .  S
C369        C370   1.425       .  A
C369        C374   1.410       .  A
C370        C842   1.495       .  S
C370        C371   1.404       .  A
C371        H376   1.083       .  S
C371        C372   1.403       .  A
C372        C746   1.489       .  S
C372        C373   1.417       .  A
C373        C778   1.497       .  S
C373        C374   1.403       .  A
C374        H375   1.083       .  S
O377       Mg379   2.179       .  S
O377       Mg385   2.189       .  S
O377        C412   1.236       .  S
C378        O391   1.233       .  S
C378        O415   1.267       .  A
C378        H417   1.081       .  S
Mg379       O408   2.161       .  S
Mg379       O423   2.303       .  S
Mg379       O419   2.324       .  S
Mg379       O390   2.303       .  S
O380       Mg422   2.176       .  S
O380       Mg405   2.185       .  S
O380        C401   1.237       .  S
O381        C412   1.271       .  A
O381       Mg405   2.307       .  S
C382        O384   1.272       .  A
C382        O396   1.268       .  A
C382        C717   1.491       .  S
O383        C411   1.269       .  A
O383       Mg385   2.296       .  S
O384       Mg416   2.285       .  S
Mg385       O391   2.152       .  S
Mg385       O387   2.298       .  S
Mg385      O2847   2.264       .  S
C386        O424   1.266       .  A
C386        O392   1.277       .  A
C386        C644   1.469       .  S
O387        C394   1.272       .  A
H388        C401   1.081       .  S
C389        O403   1.236       .  S
C389        O404   1.271       .  A
C389        H414   1.081       .  S
O390        C413   1.269       .  A
O391       Mg405   2.163       .  S
O392      Mg1646   2.317       .  S
C393        O406   1.271       .  A
C393        O398   1.281       .  A
C393       C1922   1.495   1_545  S
C394        O421   1.280       .  A
C394       C3213   1.512       .  S
Mg395       O402   2.139       .  S
Mg395       O403   2.157       .  S
Mg395       O396   2.285       .  S
Mg395       O397   2.308       .  S
Mg395      O1648   2.255   1_545  S
O397        C401   1.272       .  A
O398       Mg405   2.338       .  S
O399        C418   1.268       .  A
O399      Mg2833   2.263   1_455  S
O400        C420   1.273       .  A
O400       Mg416   2.301       .  S
O402       Mg416   2.143       .  S
O402        C413   1.234       .  S
O403       Mg422   2.143       .  S
O404       Mg416   2.307       .  S
Mg405       O421   2.327       .  S
O406       Mg422   2.257       .  S
H407        C412   1.081       .  S
O408       Mg416   2.155       .  S
O408        C411   1.234       .  S
H409        C411   1.081       .  S
H410        C413   1.081       .  S
O415       Mg422   2.296       .  S
C418       O2871   1.274       .  A
C418        C617   1.460       .  S
O419        C420   1.279       .  A
C420        C733   1.496       .  S
Mg422      O1616   2.323   1_545  S
O423       C2866   1.277       .  A
O424      Mg1619   2.262       .  S
O425       Mg427   2.147       .  S
O425       Mg433   2.155       .  S
O425        C460   1.235       .  S
C426        O439   1.235       .  S
C426        O463   1.271       .  A
C426        H465   1.081       .  S
Mg427       O456   2.167       .  S
Mg427       O471   2.260       .  S
Mg427       O467   2.240       .  S
Mg427       O438   2.291       .  S
O428       Mg470   2.158       .  S
O428       Mg453   2.166       .  S
O428        C449   1.234       .  S
O429        C460   1.270       .  A
O429       Mg453   2.308       .  S
C430        O432   1.268       .  A
C430        O444   1.280       .  A
C430       C3197   1.484       .  S
O431        C459   1.268       .  A
O431       Mg433   2.295       .  S
O432       Mg464   2.237       .  S
Mg433       O439   2.162       .  S
Mg433       O447   2.272       .  S
Mg433       O435   2.292       .  S
C434        O472   1.274       .  A
C434       O2888   1.269       .  A
C434        C610   1.462       .  S
O435        C442   1.271       .  A
H436        C449   1.081       .  S
C437        O451   1.235       .  S
C437        O452   1.270       .  A
C437        H462   1.081       .  S
O438        C461   1.267       .  A
O439       Mg453   2.148       .  S
O440       C2882   1.271       .  A
O440       Mg470   2.295       .  S
C441        O454   1.271       .  A
C441        O446   1.271       .  A
C441        C682   1.506       .  S
C442        O469   1.272       .  A
C442        C666   1.495       .  S
Mg443       O450   2.169       .  S
Mg443       O451   2.165       .  S
Mg443       O444   2.327       .  S
Mg443       O445   2.307       .  S
Mg443      O2920   2.307       .  S
O445        C449   1.270       .  A
O446       Mg453   2.303       .  S
O447        C466   1.271       .  A
O448        C468   1.276       .  A
O448       Mg464   2.326       .  S
O450       Mg464   2.168       .  S
O450        C461   1.233       .  S
O451       Mg470   2.170       .  S
O452       Mg464   2.307       .  S
Mg453       O469   2.270       .  S
O454       Mg470   2.273       .  S
H455        C460   1.081       .  S
O456       Mg464   2.136       .  S
O456        C459   1.234       .  S
H457        C459   1.081       .  S
H458        C461   1.081       .  S
O463       Mg470   2.312       .  S
C466        O471   1.265       .  A
C466        C642   1.453       .  S
O467        C468   1.268       .  A
C468        C650   1.493       .  S
O472      Mg2891   2.281   1_455  S
C473        C877   1.437       .  S
C473        C474   1.416       .  A
C473        C478   1.391       .  A
C474        C922   1.524       .  S
C474        C475   1.411       .  A
C475        H480   1.083       .  S
C475        C476   1.408       .  A
C476        C701   1.482       .  S
C476        C477   1.417       .  A
C477        C653   1.483       .  S
C477        C478   1.391       .  A
C478        H479   1.086       .  S
C481       C1165   1.499       .  S
C481        C482   1.425       .  A
C481        C486   1.413       .  A
C482       C1021   1.495       .  S
C482        C483   1.397       .  A
C483        H488   1.085       .  S
C483       C2932   1.399       .  A
C484        C685   1.487       .  S
C484        C485   1.421       .  A
C484       C2931   1.397       .  A
C485        C730   1.495       .  S
C485       C2934   1.413       .  A
C486        H487   1.081       .  S
C486       C2933   1.407       .  A
C489       C1181   1.436       .  S
C489        C490   1.419       .  A
C489        C494   1.391       .  A
C490        C989   1.534       .  S
C490        C491   1.421       .  A
C491        H496   1.082       .  S
C491        C492   1.410       .  A
C492        C669   1.491       .  S
C492        C493   1.411       .  A
C493        C829   1.478       .  S
C493        C494   1.388       .  A
C494        H495   1.085       .  S
C497       C1037   1.492       .  S
C497        C498   1.419       .  A
C497        C502   1.408       .  A
C498        C973   1.487       .  S
C498        C499   1.401       .  A
C499        H504   1.085       .  S
C499       C1724   1.402       .  A
C500        C714   1.478       .  S
C500        C501   1.413       .  A
C500       C1723   1.399       .  A
C501        C813   1.492       .  S
C501       C1726   1.407   1_545  A
C502        H503   1.084       .  S
C502       C1725   1.407       .  A
O505       Mg513   2.170   1_556  S
O505      Mg1731   2.146       .  S
O505        C540   1.234       .  S
C506        O519   1.236       .  S
C506        O543   1.271       .  A
C506        H545   1.081       .  S
Mg507       O536   2.171   1_556  S
Mg507      O1729   2.152   1_545  S
Mg507       O551   2.331   1_556  S
Mg507       O547   2.254   1_556  S
Mg507       O518   2.303       .  S
O508       Mg550   2.160   1_556  S
O508       Mg533   2.156       .  S
O508        C529   1.232       .  S
O509       C2988   1.267       .  A
O509       Mg533   2.294       .  S
C510        O512   1.275   1_655  A
C510       O2972   1.268   1_554  A
C510       C2754   1.466       .  S
O511       C1763   1.268       .  A
O511       Mg513   2.304       .  S
O512       Mg544   2.294       .  S
Mg513      O2967   2.176   1_455  S
Mg513       O527   2.290       .  S
Mg513       O515   2.257       .  S
C514        O520   1.279       .  A
C514       O1776   1.270       .  A
C514       C1402   1.471       .  S
O515        C522   1.266   1_454  A
H516        C529   1.081       .  S
C517        O531   1.232       .  S
C517       O2980   1.264       .  A
C517        H542   1.081       .  S
O518        C541   1.269       .  A
O519       Mg533   2.191   1_554  S
O519      Mg2961   2.172       .  S
O520       Mg550   2.328   1_556  S
C521        O534   1.272   1_556  A
C521        O526   1.272       .  A
C522       O2997   1.274       .  A
Mg523       O531   2.168   1_556  S
Mg523      O2978   2.166       .  S
Mg523       O524   2.267       .  S
Mg523       O525   2.297   1_545  S
Mg523       O552   2.278       .  S
O524       C2958   1.268   1_556  A
O525       C1753   1.267       .  A
O526       Mg533   2.293       .  S
O527        C546   1.270       .  A
O528        C548   1.273       .  A
O528       Mg544   2.298       .  S
C529       O1749   1.267       .  A
O530       Mg544   2.192   1_556  S
O530      Mg2971   2.168   1_455  S
O530        C541   1.234       .  S
O531      Mg1774   2.134   1_545  S
O532       C2965   1.265       .  A
O532       Mg544   2.285   1_655  S
Mg533       O549   2.266       .  S
O534       Mg550   2.265       .  S
H535        C540   1.081       .  S
O536       Mg544   2.181       .  S
O536        C539   1.233       .  S
H537        C539   1.081       .  S
H538        C541   1.081       .  S
C539       O1735   1.269   1_545  A
C540       O2957   1.268       .  A
O543       Mg550   2.306       .  S
C546       O1775   1.278       .  A
O547        C548   1.270       .  A
O549       C2970   1.271       .  A
Mg550      O1755   2.141       .  S
O551       C1770   1.277   1_545  A
O552       C1738   1.271       .  A
O553       Mg555   2.163       .  S
O553       Mg561   2.180       .  S
O553        C588   1.232       .  S
C554        O567   1.235       .  S
C554        O591   1.270       .  A
C554        H593   1.081       .  S
Mg555       O584   2.177       .  S
Mg555       O599   2.287       .  S
Mg555       O595   2.282       .  S
Mg555       O566   2.290       .  S
O556       Mg598   2.172       .  S
O556       Mg581   2.160       .  S
O556        C577   1.233       .  S
O557        C588   1.267       .  A
O557       Mg581   2.297       .  S
C558        O560   1.271       .  A
C558        O572   1.274       .  A
O559        C587   1.265       .  A
O559       Mg561   2.289       .  S
O560       Mg592   2.268       .  S
Mg561       O567   2.188       .  S
Mg561       O575   2.319       .  S
Mg561       O563   2.297       .  S
C562        O600   1.277       .  A
C562        O568   1.272       .  A
O563        C570   1.275       .  A
H564        C577   1.081       .  S
C565        O579   1.232       .  S
C565        O580   1.265       .  A
C565        H590   1.081       .  S
O566        C589   1.267       .  A
O567       Mg581   2.196       .  S
O568       Mg598   2.291       .  S
C569        O582   1.266       .  A
C569        O574   1.273       .  A
C570        O597   1.272       .  A
Mg571       O578   2.160       .  S
Mg571       O579   2.171       .  S
Mg571       O572   2.286       .  S
Mg571       O573   2.300       .  S
Mg571       O600   2.307       .  S
O573        C577   1.268       .  A
O574       Mg581   2.295       .  S
O575        C594   1.279       .  A
O576        C596   1.270       .  A
O576       Mg592   2.266       .  S
O578       Mg592   2.197       .  S
O578        C589   1.234       .  S
O579       Mg598   2.136       .  S
O580       Mg592   2.283       .  S
Mg581       O597   2.273       .  S
O582       Mg598   2.248       .  S
H583        C588   1.081       .  S
O584       Mg592   2.148       .  S
O584        C587   1.231       .  S
H585        C587   1.081       .  S
H586        C589   1.081       .  S
O591       Mg598   2.308       .  S
C594        O599   1.272       .  A
O595        C596   1.272       .  A
O601       Mg603   2.188       .  S
O601       Mg609   2.155       .  S
O601        C636   1.233       .  S
C602        O615   1.234       .  S
C602        O639   1.268       .  A
C602        H641   1.081       .  S
Mg603       O632   2.184       .  S
Mg603       O647   2.263       .  S
Mg603       O643   2.294       .  S
Mg603       O614   2.290       .  S
O604       Mg646   2.188       .  S
O604       Mg629   2.158       .  S
O604        C625   1.235       .  S
O605        C636   1.271       .  A
O605       Mg629   2.318       .  S
C606        O608   1.271       .  A
C606        O620   1.276       .  A
O607        C635   1.272       .  A
O607       Mg609   2.314       .  S
O608       Mg640   2.273       .  S
Mg609       O615   2.155       .  S
Mg609       O623   2.268       .  S
Mg609       O611   2.335       .  S
C610        O648   1.274       .  A
C610        O616   1.268       .  A
O611        C618   1.278       .  A
H612        C625   1.081       .  S
C613        O627   1.231       .  S
C613        O628   1.266       .  A
C613        H638   1.081       .  S
O614        C637   1.266       .  A
O615       Mg629   2.160       .  S
O616       Mg646   2.275       .  S
C617        O630   1.268       .  A
C617        O622   1.274       .  A
C618        O645   1.274       .  A
Mg619       O626   2.152       .  S
Mg619       O627   2.162       .  S
Mg619       O620   2.300       .  S
Mg619       O621   2.299       .  S
Mg619       O648   2.287       .  S
O621        C625   1.269       .  A
O622       Mg629   2.289       .  S
O623        C642   1.271       .  A
O624        C644   1.271       .  A
O624       Mg640   2.278       .  S
O626       Mg640   2.184       .  S
O626        C637   1.233       .  S
O627       Mg646   2.159       .  S
O628       Mg640   2.294       .  S
Mg629       O645   2.306       .  S
O630       Mg646   2.263       .  S
H631        C636   1.081       .  S
O632       Mg640   2.153       .  S
O632        C635   1.236       .  S
H633        C635   1.081       .  S
H634        C637   1.081       .  S
O639       Mg646   2.296       .  S
C642        O647   1.266       .  A
O643        C644   1.271       .  A
C649        H656   1.084       .  S
C649        C650   1.411       .  A
C649        C654   1.406       .  A
C650        C651   1.418       .  A
C651        C652   1.410       .  A
C651        C658   1.519       .  S
C652        H657   1.083       .  S
C652        C653   1.407       .  A
C653        C654   1.415       .  A
C654        C655   1.521       .  S
C655        F659   1.383       .  S
C655        F660   1.381       .  S
C655        F661   1.384       .  S
C658        F662   1.385       .  S
C658        F663   1.381       .  S
C658        F664   1.384       .  S
C665        H672   1.079       .  S
C665        C666   1.409       .  A
C665        C670   1.407       .  A
C666        C667   1.422       .  A
C667        C668   1.408       .  A
C667        C674   1.520       .  S
C668        H673   1.082       .  S
C668        C669   1.404       .  A
C669        C670   1.415       .  A
C670        C671   1.521       .  S
C671        F675   1.384       .  S
C671        F676   1.381       .  S
C671        F677   1.383       .  S
C674        F678   1.382       .  S
C674        F679   1.384       .  S
C674        F680   1.385       .  S
C681       H3136   1.082       .  S
C681        C682   1.413       .  A
C681       C3134   1.410       .  A
C682        C683   1.430       .  A
C683        C684   1.408       .  A
C683        C690   1.520       .  S
C684        H689   1.083       .  S
C684        C685   1.399       .  A
C685       C3134   1.412       .  A
C686       C3129   1.402       .  A
C686       C3133   1.415   1_455  A
C686        C687   1.518       .  S
C687        F691   1.383       .  S
C687        F692   1.379       .  S
C687        F693   1.384       .  S
H688       C3129   1.084       .  S
C690        F694   1.383       .  S
C690        F695   1.383       .  S
C690        F696   1.385       .  S
C697        H704   1.084       .  S
C697        C698   1.409       .  A
C697        C702   1.406       .  A
C698       C1617   1.486       .  S
C698        C699   1.416       .  A
C699        C700   1.404       .  A
C699       C1930   1.517       .  S
C700        H705   1.084       .  S
C700        C701   1.404       .  A
C701        C702   1.416       .  A
C702        C703   1.518       .  S
C703        F707   1.384       .  S
C703        F708   1.383       .  S
C703        F709   1.381       .  S
C706       C1923   1.521       .  S
C706        F711   1.383   1_565  S
C706        F712   1.385       .  S
C706       F1934   1.383       .  S
F710       C1930   1.382       .  S
C713        H720   1.082   1_545  S
C713        C714   1.396       .  A
C713        C718   1.401       .  A
C714        C715   1.416       .  A
C715        C716   1.409       .  A
C715        C722   1.519       .  S
C716        H721   1.084       .  S
C716        C717   1.408       .  A
C717        C718   1.427       .  A
C718        C719   1.523   1_545  S
C719        F723   1.385       .  S
C719        F724   1.382       .  S
C719        F725   1.384       .  S
C722        F727   1.382       .  S
C722        F728   1.384       .  S
C722       F1950   1.383       .  S
F726       C1946   1.383       .  S
C729        H736   1.081       .  S
C729        C730   1.401       .  A
C729        C734   1.407       .  A
C730       C3179   1.424       .  A
C731       C3178   1.421   1_455  A
C731       C3180   1.413       .  A
C731        C738   1.518       .  S
C732       H3185   1.084       .  S
C732        C733   1.405       .  A
C732       C3179   1.414       .  A
C733        C734   1.426       .  A
C734        C735   1.522       .  S
C735        F739   1.385       .  S
C735        F740   1.383       .  S
C735        F741   1.382       .  S
H737       C3180   1.084       .  S
C738        F742   1.384       .  S
C738        F743   1.382       .  S
C738        F744   1.380       .  S
C745        H752   1.083       .  S
C745        C746   1.402       .  A
C745        C750   1.403       .  A
C746        C747   1.417       .  A
C747        C748   1.410       .  A
C747        C754   1.523       .  S
C748        H753   1.083       .  S
C748        C749   1.409       .  A
C749       C2878   1.486   1_455  S
C749        C750   1.420       .  A
C750       C3199   1.518       .  S
C751       C3198   1.519       .  S
C751        F755   1.385       .  S
C751        F756   1.381       .  S
C751        F757   1.383       .  S
C754        F758   1.381       .  S
C754        F759   1.382       .  S
C754        F760   1.384       .  S
C761        H768   1.081       .  S
C761        C762   1.402       .  A
C761        C766   1.411       .  A
C762        C763   1.420       .  A
C763       C3212   1.414       .  A
C763       C3218   1.518       .  S
C764        H769   1.082       .  S
C764       C3211   1.413       .  A
C764       C3213   1.409       .  A
C765       C2842   1.508   1_455  S
C765        C766   1.430       .  A
C765       C3212   1.409       .  A
C766        C767   1.522       .  S
C767        F771   1.385       .  S
C767        F772   1.382       .  S
C767        F773   1.384       .  S
C770       C3211   1.519       .  S
C770        F776   1.385       .  S
C770       F3222   1.381       .  S
C770       F3223   1.383       .  S
F774       C3218   1.380       .  S
F775       C3218   1.383       .  S
C777        H784   1.079       .  S
C777        C778   1.401       .  A
C777        C782   1.407       .  A
C778        C779   1.416       .  A
C779        C780   1.408       .  A
C779        C786   1.517       .  S
C780        H785   1.080       .  S
C780        C781   1.409       .  A
C781       C1554   1.500       .  S
C781        C782   1.427       .  A
C782        C783   1.522       .  S
C783        F787   1.385       .  S
C783        F789   1.384       .  S
C783       F2012   1.383       .  S
C786        F790   1.379       .  S
C786        F791   1.382       .  S
C786        F792   1.385       .  S
F788       C2007   1.383       .  S
C793        H800   1.083       .  S
C793        C794   1.402       .  A
C793        C798   1.409       .  A
C794        C795   1.420       .  A
C795        C796   1.398       .  A
C795        C802   1.519       .  S
C796        H801   1.080       .  S
C796        C797   1.398       .  A
C797        C798   1.421       .  A
C798        C799   1.517       .  S
C799        F803   1.385       .  S
C799        F804   1.378       .  S
C799        F805   1.383       .  S
C802        F806   1.376       .  S
C802        F807   1.384       .  S
C802        F808   1.385       .  S
C809        H816   1.084       .  S
C809        C810   1.406   1_565  A
C809        C814   1.409       .  A
C810        C811   1.426       .  A
C811        C812   1.411       .  A
C811        C818   1.519       .  S
C812        H817   1.084       .  S
C812        C813   1.401       .  A
C813        C814   1.421   1_545  A
C814        C815   1.518       .  S
C815        F819   1.383       .  S
C815        F820   1.381       .  S
C815       F2045   1.383       .  S
C818        F822   1.381       .  S
C818        F823   1.384       .  S
C818        F824   1.385       .  S
F821       C2039   1.384       .  S
C825        H832   1.083       .  S
C825        C826   1.404       .  A
C825        C830   1.398       .  A
C826        C827   1.416       .  A
C827        C828   1.406       .  A
C827        C834   1.517       .  S
C828        H833   1.082       .  S
C828        C829   1.404       .  A
C829        C830   1.415       .  A
C830        C831   1.523       .  S
C831        F835   1.385       .  S
C831        F836   1.381       .  S
C831        F837   1.383       .  S
C834        F838   1.381       .  S
C834        F839   1.383       .  S
C834        F840   1.385       .  S
C841        H848   1.083       .  S
C841        C842   1.400       .  A
C841        C846   1.411       .  A
C842        C843   1.412       .  A
C843        C844   1.414       .  A
C843        C850   1.517       .  S
C844       H3297   1.082   1_455  S
C844        C845   1.417       .  A
C845        C846   1.429       .  A
C846        C847   1.519       .  S
C847        F851   1.384       .  S
C847        F852   1.383       .  S
C847        F853   1.383       .  S
H849       C3292   1.081       .  S
C850        F854   1.384   1_455  S
C850        F855   1.383   1_455  S
C850       F3304   1.381       .  S
F856       C3298   1.379       .  S
C857        H864   1.084       .  S
C857        C858   1.409       .  A
C857        C862   1.411       .  A
C858        C859   1.422       .  A
C859        C860   1.415       .  A
C859        C866   1.517       .  S
C860        H865   1.082       .  S
C860        C861   1.407       .  A
C861        C862   1.420       .  A
C862        C863   1.518       .  S
C863        F868   1.379       .  S
C863        F869   1.383       .  S
C863       F3315   1.384       .  S
C866        F870   1.383       .  S
C866        F871   1.379       .  S
C866        F872   1.385       .  S
F867       C3311   1.384       .  S
C873        H880   1.080       .  S
C873        C874   1.827       .  A
C873        C878   1.830       .  A
C874        C875   1.850       .  A
C875        C876   1.836       .  A
C875        C882   1.494       .  S
C876        H881   1.084       .  S
C876        C877   1.845       .  A
C877        C878   1.845       .  A
C878        C879   1.498       .  S
C879        F883   1.382       .  S
C879        F884   1.381       .  S
C879        F885   1.381       .  S
C882        F886   1.382       .  S
C882        F887   1.381       .  S
C882        F888   1.382       .  S
C889        H896   1.084       .  S
C889        C890   1.410       .  A
C889        C894   1.403       .  A
C890        C891   1.425       .  A
C891        C892   1.409       .  A
C891        C898   1.521       .  S
C892        H897   1.082       .  S
C892        C893   1.403       .  A
C893        C894   1.415       .  A
C894        C895   1.520       .  S
C895        F899   1.384       .  S
C895        F900   1.381       .  S
C895        F901   1.382       .  S
C898        F902   1.384       .  S
C898        F903   1.383       .  S
C898        F904   1.385       .  S
C905        H912   1.079       .  S
C905        C906   1.401       .  A
C905        C910   1.404       .  A
C906        C907   1.426       .  A
C907        C908   1.407       .  A
C907        C914   1.517       .  S
C908        H913   1.085       .  S
C908        C909   1.399       .  A
C909        C910   1.421       .  A
C910        C911   1.521       .  S
C911        F915   1.385       .  S
C911        F916   1.384       .  S
C911       F2141   1.380       .  S
C914        F918   1.379       .  S
C914        F919   1.383       .  S
C914        F920   1.384       .  S
F917       C2135   1.381       .  S
C921        H928   1.081       .  S
C921        C922   1.411       .  A
C921        C926   1.408       .  A
C922        C923   1.445       .  A
C923        C924   1.410       .  A
C923        C930   1.586       .  S
C924        H929   1.084       .  S
C924        C925   1.389       .  A
C925        C926   1.415       .  A
C926        C927   1.521       .  S
C927        F933   1.381       .  S
C927       F2155   1.385       .  S
C927       F2156   1.383       .  S
C930        F934   1.416       .  S
C930        F935   2.444       .  S
C930        F936   1.418       .  S
F931       C2151   1.385       .  S
F932       C2151   1.384   1_545  S
C937        H944   1.083       .  S
C937        C938   1.410       .  A
C937        C942   1.415       .  A
C938        C939   1.417       .  A
C939        C940   1.409       .  A
C939        C946   1.518       .  S
C940        H945   1.077       .  S
C940        C941   1.405       .  A
C941        C942   1.419       .  A
C942        C943   1.520       .  S
C943        F948   1.381       .  S
C943       F3395   1.384       .  S
C943       F3397   1.383       .  S
C946        F950   1.379       .  S
C946        F951   1.384       .  S
C946        F952   1.385       .  S
F947       C3391   1.385       .  S
F949       C3391   1.382       .  S
C953        H960   1.082       .  S
C953        C954   1.409       .  A
C953        C958   1.403       .  A
C954        C955   1.427       .  A
C955        C956   1.404       .  A
C955        C962   1.523       .  S
C956        H961   1.081       .  S
C956        C957   1.398       .  A
C957        C958   1.417       .  A
C958        C959   1.526       .  S
C959        F963   1.384       .  S
C959        F964   1.381       .  S
C959        F965   1.380       .  S
C962        F966   1.384       .  S
C962        F967   1.383       .  S
C962        F968   1.385       .  S
C969        H976   1.084       .  S
C969        C970   1.407       .  A
C969        C974   1.407       .  A
C970        C971   1.427       .  A
C971       C2196   1.409       .  A
C971       C2202   1.522       .  S
C972        H977   1.083       .  S
C972       C2195   1.410       .  A
C972       C2197   1.404   1_545  A
C973        C974   1.418       .  A
C973       C2196   1.401       .  A
C974        C975   1.522       .  S
C975        F979   1.384       .  S
C975        F980   1.381       .  S
C975        F981   1.382       .  S
C978       C2195   1.519       .  S
C978        F982   1.383       .  S
C978        F983   1.384       .  S
C978        F984   1.385       .  S
C985        H992   1.084       .  S
C985        C986   1.389       .  A
C985        C990   1.416       .  A
C986        C987   1.410       .  A
C987        C988   1.407       .  A
C987        C994   1.519       .  S
C988        H993   1.079       .  S
C988        C989   1.413       .  A
C989        C990   1.451       .  A
C990        C991   1.588       .  S
C991        F995   1.418       .  S
C991        F996   1.417       .  S
C991        F997   2.442       .  S
C994        F998   1.383       .  S
C994        F999   1.383       .  S
C994       F1000   1.385       .  S
C1001      H1008   1.084       .  S
C1001      C1002   1.409       .  A
C1001      C1006   1.397       .  A
C1002      C1003   1.429       .  A
C1003      C1004   1.403       .  A
C1003      C1010   1.522       .  S
C1004      H1009   1.082       .  S
C1004      C1005   1.396       .  A
C1005      C1006   1.411       .  A
C1006      C1007   1.520       .  S
C1007      F1011   1.382       .  S
C1007      F1012   1.383       .  S
C1007      F1013   1.382       .  S
C1010      F1014   1.383       .  S
C1010      F1015   1.383       .  S
C1010      F1016   1.385       .  S
C1017      H1024   1.082       .  S
C1017      C1018   1.409       .  A
C1017      C1022   1.408       .  A
C1018      C1019   1.431       .  A
C1019      C1020   1.412   1_455  A
C1019      C1026   1.521   1_455  S
C1020      H1025   1.083       .  S
C1020      C1021   1.400   1_655  A
C1021      C1022   1.420       .  A
C1022      C1023   1.523       .  S
C1023      F1027   1.385       .  S
C1023      F1028   1.382       .  S
C1023      F1029   1.381       .  S
C1026      F1030   1.383       .  S
C1026      F1031   1.383       .  S
C1026      F3480   1.385       .  S
F1032      C3474   1.385       .  S
C1033      H1040   1.082       .  S
C1033      C1034   1.411       .  A
C1033      C1038   1.410       .  A
C1034      C1035   1.429       .  A
C1035      C1036   1.409       .  A
C1035      C1042   1.521       .  S
C1036      H1041   1.083       .  S
C1036      C1037   1.399       .  A
C1037      C1038   1.414       .  A
C1038      C1039   1.517       .  S
C1039      F1043   1.385       .  S
C1039      F1044   1.383       .  S
C1039      F1045   1.379       .  S
C1042      F1046   1.383       .  S
C1042      F1047   1.383       .  S
C1042      F1048   1.385       .  S
C1049      H1056   1.082       .  S
C1049      C1050   1.410       .  A
C1049      C1054   1.410       .  A
C1050      C1051   1.420       .  A
C1051      C1052   1.413       .  A
C1051      C1058   1.519       .  S
C1052      H1057   1.083       .  S
C1052      C1053   1.408       .  A
C1053      C2518   1.492       .  S
C1053      C1054   1.414       .  A
C1054      C3503   1.518       .  S
C1055      C3502   1.519       .  S
C1055      F1059   1.385       .  S
C1055      F1060   1.381   1_655  S
C1055      F1061   1.383       .  S
C1058      F1062   1.381       .  S
C1058      F1063   1.383       .  S
C1058      F1064   1.385       .  S
C1065      H3520   1.081       .  S
C1065      C1066   1.415       .  A
C1065      C1070   1.410       .  A
C1066      C1067   1.429       .  A
C1067      C1068   1.412       .  A
C1067      C1074   1.519       .  S
C1068      H1073   1.083       .  S
C1068      C1069   1.402       .  A
C1069      C1070   1.412       .  A
C1070      C1071   1.517       .  S
C1071      F1076   1.383       .  S
C1071      F1077   1.385       .  S
C1071      F3523   1.380       .  S
H1072      C3513   1.082   1_455  S
C1074      F1078   1.382       .  S
C1074      F1079   1.383       .  S
C1074      F1080   1.385       .  S
F1075      C3519   1.379       .  S
C1081      H2312   1.083   1_545  S
C1081      C1082   1.403       .  A
C1081      C1086   1.415       .  A
C1082      C1083   1.426       .  A
C1083      C1084   1.410       .  A
C1083      C1090   1.522       .  S
C1084      H1089   1.079       .  S
C1084      C1085   1.402       .  A
C1085      C1086   1.427       .  A
C1086      C1087   1.520       .  S
C1087      F1092   1.381       .  S
C1087      F1093   1.384   1_545  S
C1087      F2315   1.382   1_545  S
H1088      C2305   1.084       .  S
C1090      F1094   1.381       .  S
C1090      F1095   1.384       .  S
C1090      F1096   1.385       .  S
F1091      C2311   1.383       .  S
C1097      H1104   1.082       .  S
C1097      C1098   1.401       .  A
C1097      C1102   1.412       .  A
C1098      C1099   1.414       .  A
C1099      C1100   1.402       .  A
C1099      C1106   1.519       .  S
C1100      H1105   1.084   1_545  S
C1100      C1101   1.411       .  A
C1101      C1342   1.502   1_545  S
C1101      C1102   1.428       .  A
C1102      C1103   1.521       .  S
C1103      F1107   1.385       .  S
C1103      F1108   1.383       .  S
C1103      F2333   1.383       .  S
C1106      F1110   1.384       .  S
C1106      F1111   1.380       .  S
C1106      F1112   1.381   1_545  S
F1109      C2327   1.383       .  S
C1113      H1120   1.083       .  S
C1113      C1114   1.402       .  A
C1113      C1118   1.407       .  A
C1114      C1115   1.415       .  A
C1115      C1116   1.401       .  A
C1115      C1122   1.516       .  S
C1116      H1121   1.085       .  S
C1116      C1117   1.407       .  A
C1117      C1118   1.422       .  A
C1118      C1119   1.521       .  S
C1119      F1123   1.385       .  S
C1119      F1124   1.382       .  S
C1119      F1125   1.383       .  S
C1122      F1126   1.382       .  S
C1122      F1127   1.381       .  S
C1122      F1128   1.383       .  S
C1129      H1136   1.082       .  S
C1129      C1130   1.406       .  A
C1129      C1134   1.401       .  A
C1130      C1131   1.418       .  A
C1131      C1132   1.400       .  A
C1131      C1138   1.520       .  S
C1132      H1137   1.082       .  S
C1132      C1133   1.403       .  A
C1133      C1134   1.416       .  A
C1134      C1135   1.523       .  S
C1135      F1139   1.385       .  S
C1135      F1140   1.381       .  S
C1135      F1141   1.380       .  S
C1138      F1142   1.382       .  S
C1138      F1143   1.384       .  S
C1138      F1144   1.382       .  S
C1145      H1152   1.083       .  S
C1145      C1146   1.405       .  A
C1145      C2374   1.408   1_545  A
C1146      C1147   1.413       .  A
C1147      C1148   1.402       .  A
C1147      C1154   1.520       .  S
C1148      H1153   1.084       .  S
C1148      C2373   1.414       .  A
C1149      C1150   1.418       .  A
C1149      C2372   1.411       .  A
C1150      C2369   1.410       .  A
C1150      C1151   1.517       .  S
C1151      F1155   1.384       .  S
C1151      F1156   1.381       .  S
C1151      F1157   1.384       .  S
C1154      F1158   1.383       .  S
C1154      F1159   1.380       .  S
C1154      F1160   1.384       .  S
C1161      H1168   1.083       .  S
C1161      C1162   1.401   1_655  A
C1161      C1166   1.414       .  A
C1162      C1163   1.421       .  A
C1163      C1164   1.405       .  A
C1163      C1170   1.521       .  S
C1164      H1169   1.081       .  S
C1164      C1165   1.401       .  A
C1165      C1166   1.427   1_455  A
C1166      C3615   1.521       .  S
C1167      C3614   1.518       .  S
C1167      F1173   1.381       .  S
C1167      F3619   1.385       .  S
C1167      F3620   1.383       .  S
C1170      F1174   1.384       .  S
C1170      F1175   1.379       .  S
C1170      F1176   1.385       .  S
F1171      C3615   1.384       .  S
F1172      C3615   1.383       .  S
C1177      H1184   1.084       .  S
C1177      C1178   1.828       .  A
C1177      C1182   1.826       .  A
C1178      C1179   1.854       .  A
C1179      C1180   1.843       .  A
C1179      C1186   1.496       .  S
C1180      H1185   1.076       .  S
C1180      C1181   1.848       .  A
C1181      C1182   1.842       .  A
C1182      C1183   1.498       .  S
C1183      F1187   1.382       .  S
C1183      F1188   1.381       .  S
C1183      F1189   1.381       .  S
C1186      F1190   1.382       .  S
C1186      F1191   1.382       .  S
C1186      F1192   1.381       .  S
C1193      H1200   1.082       .  S
C1193      C1194   1.401       .  A
C1193      C1198   1.411       .  A
C1194      C1195   1.416       .  A
C1195      C1196   1.406       .  A
C1195      C1202   1.521       .  S
C1196      H1201   1.084       .  S
C1196      C1197   1.412       .  A
C1197      C2466   1.505       .  S
C1197      C1198   1.425       .  A
C1198      C3647   1.516       .  S
C1199      C3646   1.515   1_455  S
C1199      F1203   1.385       .  S
C1199      F1204   1.384       .  S
C1199      F1205   1.383       .  S
C1202      F1206   1.384       .  S
C1202      F1207   1.381       .  S
C1202      F1208   1.383       .  S
C1209      H1216   1.081       .  S
C1209      C1210   1.403       .  A
C1209      C1214   1.404       .  A
C1210      C1211   1.424       .  A
C1211      C1212   1.408       .  A
C1211      C1218   1.522       .  S
C1212      H1217   1.085       .  S
C1212      C1213   1.405       .  A
C1213      C1214   1.419       .  A
C1214      C1215   1.518       .  S
C1215      F1219   1.386       .  S
C1215      F1220   1.376       .  S
C1215      F1221   1.383       .  S
C1218      F1222   1.383       .  S
C1218      F1223   1.380       .  S
C1218      F1224   1.384       .  S
O1225     Mg1227   2.158       .  S
O1225     Mg1233   2.152       .  S
O1225      C1260   1.235       .  S
C1226      O1239   1.234       .  S
C1226      O1263   1.270       .  A
C1226      H1265   1.081       .  S
Mg1227     O1256   2.162       .  S
Mg1227     O1271   2.325   1_455  S
Mg1227     O1267   2.309       .  S
Mg1227     O1238   2.313       .  S
O1228     Mg1270   2.164       .  S
O1228     Mg1253   2.170       .  S
O1228      C1249   1.238       .  S
O1229      C1260   1.271       .  A
O1229     Mg1253   2.311       .  S
C1230      O1232   1.264       .  A
C1230      O1244   1.258       .  A
C1230      C2402   1.462       .  S
O1231      C1259   1.271       .  A
O1231     Mg1233   2.307       .  S
O1232     Mg1264   2.293       .  S
Mg1233     O1239   2.183       .  S
Mg1233     O3695   2.283   1_455  S
Mg1233     O1235   2.289       .  S
C1234      O1272   1.265       .  A
C1234      O1240   1.278       .  A
C1234      C1818   1.474       .  S
O1235      C1242   1.272       .  A
H1236      C1249   1.081       .  S
C1237      O1251   1.238       .  S
C1237      O1252   1.275       .  A
C1237      H1262   1.081       .  S
O1238      C1261   1.270       .  A
O1239     Mg1253   2.158       .  S
O1240     Mg1270   2.342       .  S
C1241      O1254   1.270       .  A
C1241      O1246   1.275       .  A
C1241      C2437   1.480       .  S
C1242      O1269   1.269       .  A
C1242      C4869   1.503   1_455  S
Mg1243     O1250   2.163       .  S
Mg1243     O1251   2.114       .  S
Mg1243     O1244   2.255       .  S
Mg1243     O1245   2.322       .  S
Mg1243     O1272   2.267       .  S
O1245      C1249   1.275       .  A
O1246     Mg1253   2.317       .  S
O1247      C1266   1.271       .  A
O1247     Mg3681   2.293       .  S
O1248      C1268   1.270       .  A
O1248     Mg1264   2.279       .  S
O1250     Mg1264   2.134       .  S
O1250      C1261   1.234       .  S
O1251     Mg1270   2.121       .  S
O1252     Mg1264   2.325       .  S
Mg1253     O1269   2.277       .  S
O1254     Mg1270   2.244       .  S
H1255      C1260   1.081   1_655  S
O1256     Mg1264   2.154       .  S
O1256      C1259   1.235       .  S
H1257      C1259   1.081       .  S
H1258      C1261   1.081       .  S
O1263     Mg1270   2.312       .  S
C1266      O3719   1.279       .  A
C1266      C1786   1.474       .  S
O1267      C1268   1.276       .  A
C1268      C2386   1.485       .  S
O1271      C3714   1.279       .  A
C1273      C2434   1.491       .  S
C1273      C1274   1.426       .  A
C1273      C1278   1.408       .  A
C1274      C2370   1.488       .  S
C1274      C1275   1.399       .  A
C1275      H1280   1.085       .  S
C1275      C1276   1.396       .  A
C1276      C2357   1.473       .  S
C1276      C1277   1.411       .  A
C1277      C2338   1.487       .  S
C1277      C1278   1.397       .  A
C1278      H1279   1.084       .  S
C1281      C2418   1.486       .  S
C1281      C1282   1.409       .  A
C1281      C1286   1.399       .  A
C1282      C2322   1.489       .  S
C1282      C1283   1.409       .  A
C1283      H1288   1.084       .  S
C1283      C1284   1.415       .  A
C1284      C2309   1.505       .  S
C1284      C1285   1.427       .  A
C1285      C2293   1.489       .  S
C1285      C1286   1.406       .  A
C1286      H1287   1.084       .  S
O1289     Mg1291   2.147       .  S
O1289     Mg1297   2.146       .  S
O1289      C1324   1.233       .  S
C1290      O1303   1.235       .  S
C1290      O1327   1.269       .  A
C1290      H1329   1.081       .  S
Mg1291     O1320   2.159       .  S
Mg1291     O1331   2.217       .  S
Mg1291     O1302   2.298       .  S
O1292     Mg1334   2.161       .  S
O1292     Mg1317   2.140       .  S
O1292      C1313   1.235       .  S
O1293      C1324   1.267       .  A
O1293     Mg1317   2.292       .  S
C1294      O1296   1.274       .  A
C1294      O1308   1.278       .  A
C1294      C4725   1.495   1_455  S
O1295      C1323   1.272       .  A
O1295     Mg1297   2.310       .  S
O1296     Mg1328   2.279       .  S
Mg1297     O1303   2.144       .  S
Mg1297     O1299   2.335       .  S
C1298      O1336   1.273       .  A
C1298      O3752   1.269       .  A
C1298      C1793   1.463       .  S
O1299      C1306   1.278       .  A
H1300      C1313   1.081       .  S
C1301      O1315   1.233       .  S
C1301      O1316   1.269       .  A
C1301      H1326   1.081       .  S
O1302      C1325   1.270       .  A
O1303     Mg1317   2.162       .  S
O1304      C3746   1.267       .  A
O1304     Mg1334   2.274   1_655  S
C1305      O1318   1.268       .  A
C1305      O1310   1.276       .  A
C1305      C2242   1.499       .  S
C1306      O1333   1.274       .  A
C1306      C2258   1.500       .  S
Mg1307     O1314   2.161       .  S
Mg1307     O1315   2.160       .  S
Mg1307     O1308   2.324       .  S
Mg1307     O1309   2.300       .  S
Mg1307     O3784   2.273   1_455  S
O1309      C1313   1.269       .  A
O1310     Mg1317   2.294       .  S
O1311      C1330   1.274       .  A
O1312      C1332   1.276       .  A
O1312     Mg1328   2.334       .  S
O1314     Mg1328   2.165       .  S
O1314      C1325   1.236       .  S
O1315     Mg1334   2.172       .  S
O1316     Mg1328   2.306       .  S
Mg1317     O1333   2.260       .  S
O1318     Mg1334   2.266       .  S
H1319      C1324   1.081       .  S
O1320     Mg1328   2.156       .  S
O1320      C1323   1.236       .  S
H1321      C1323   1.081       .  S
H1322      C1325   1.081       .  S
O1327     Mg1334   2.294       .  S
C1330      O1335   1.270       .  A
C1330      C1820   1.469       .  S
O1331      C1332   1.266       .  A
C1332      C2373   1.497   1_565  S
O1336     Mg3755   2.282       .  S
O1337     Mg1339   2.139       .  S
O1337     Mg1345   2.150       .  S
O1337      C1372   1.234       .  S
C1338      O1351   1.238       .  S
C1338      O1375   1.275       .  A
C1338      H1377   1.081       .  S
Mg1339     O1368   2.152       .  S
Mg1339     O1383   2.291       .  S
Mg1339     O1379   2.213       .  S
Mg1339     O1350   2.300       .  S
O1340     Mg1382   2.135       .  S
O1340     Mg1365   2.163       .  S
O1340      C1361   1.234       .  S
O1341      C1372   1.269       .  A
O1341     Mg1365   2.299       .  S
C1342      O1344   1.270       .  A
C1342      O1356   1.276       .  A
O1343      C1371   1.268       .  A
O1343     Mg1345   2.302       .  S
O1344     Mg1376   2.242       .  S
Mg1345     O1351   2.167       .  S
Mg1345     O1359   2.297       .  S
Mg1345     O1347   2.298       .  S
C1346      O1384   1.272       .  A
C1346      C1782   1.459       .  S
O1347      C1354   1.274       .  A
H1348      C1361   1.081       .  S
C1349      O1363   1.234       .  S
C1349      O1364   1.269       .  A
C1349      H1374   1.081   1_565  S
O1350      C1373   1.270       .  A
O1351     Mg1365   2.158       .  S
O1352     Mg1382   2.311   1_545  S
C1353      O1366   1.267       .  A
C1353      O1358   1.272       .  A
C1353      C2194   1.492       .  S
C1354      O1381   1.270       .  A
C1354      C2210   1.470       .  S
Mg1355     O1362   2.142       .  S
Mg1355     O1363   2.155       .  S
Mg1355     O1356   2.333       .  S
Mg1355     O1357   2.311       .  S
O1357      C1361   1.270       .  A
O1358     Mg1365   2.294       .  S
O1359      C1378   1.275       .  A
O1360      C1380   1.272       .  A
O1360     Mg1376   2.285       .  S
O1362     Mg1376   2.151       .  S
O1362      C1373   1.236       .  S
O1363     Mg1382   2.160       .  S
O1364     Mg1376   2.302       .  S
Mg1365     O1381   2.258       .  S
O1366     Mg1382   2.262       .  S
H1367      C1372   1.081       .  S
O1368     Mg1376   2.146       .  S
O1368      C1371   1.233       .  S
H1369      C1371   1.081       .  S
H1370      C1373   1.081       .  S
O1375     Mg1382   2.322       .  S
C1378      O1383   1.268       .  A
C1378      C1794   1.470       .  S
O1379      C1380   1.261       .  A
C1380      C2226   1.490       .  S
C1385      C2229   1.471       .  S
C1385      C1386   1.412       .  A
C1385      C1390   1.386       .  A
C1386      C2274   1.500       .  S
C1386      C1387   1.417       .  A
C1387      H1392   1.078       .  S
C1387      C1388   1.419       .  A
C1388      C2165   1.510       .  S
C1388      C1389   1.422       .  A
C1389      C2181   1.477       .  S
C1389      C1390   1.388       .  A
C1390      H1391   1.084       .  S
O1393     Mg1395   2.129   1_554  S
O1393      C1428   1.235       .  S
C1394      O1407   1.234       .  S
C1394      O1431   1.269       .  A
C1394      H1433   1.081       .  S
Mg1395     O1406   2.320       .  S
O1396     Mg1421   2.148       .  S
O1396      C1417   1.233       .  S
O1397      C1428   1.269       .  A
O1397     Mg1421   2.292       .  S
C1398      O1400   1.266       .  A
C1398      O1412   1.272       .  A
C1398      C2149   1.471       .  S
O1399      C1427   1.268   1_554  A
O1399     Mg1401   2.298       .  S
O1400     Mg1432   2.254       .  S
Mg1401     O1407   2.171       .  S
Mg1401     O1415   2.298       .  S
C1402      O1440   1.273       .  A
C1402      O1408   1.277   1_556  A
O1403      C1410   1.265       .  A
H1404      C1417   1.081       .  S
C1405      O1419   1.236       .  S
C1405      O1420   1.272       .  A
C1405      H1430   1.081       .  S
O1406      C1429   1.272       .  A
C1409      O1422   1.278       .  A
C1409      O1414   1.273       .  A
C1409      C2306   1.505       .  S
C1410      O1437   1.270       .  A
C1410      C2354   1.475       .  S
Mg1411     O1418   2.181       .  S
Mg1411     O1413   2.301       .  S
Mg1411     O1440   2.296       .  S
O1413      C1417   1.268   1_556  A
O1414     Mg1421   2.305       .  S
O1415      C1434   1.271       .  A
O1416      C1436   1.272       .  A
O1416     Mg1432   2.299       .  S
O1418      C1429   1.235       .  S
O1419     Mg1438   2.166   1_556  S
O1420     Mg1432   2.314       .  S
Mg1421     O1437   2.248       .  S
H1423      C1428   1.081   1_556  S
O1424     Mg1432   2.159       .  S
O1424      C1427   1.233       .  S
H1425      C1427   1.081       .  S
H1426      C1429   1.081       .  S
O1431     Mg1438   2.303       .  S
C1434      O1439   1.280   1_554  A
C1434      C1770   1.481       .  S
O1435      C1436   1.274       .  A
C1436      C2133   1.490       .  S
O1441     Mg1443   2.126   1_556  S
O1441     Mg1449   2.178       .  S
O1441      C1476   1.235       .  S
C1442      O1455   1.235       .  S
C1442      O1479   1.268       .  A
C1442      H1481   1.081       .  S
Mg1443     O1472   2.144       .  S
Mg1443     O1487   2.295       .  S
Mg1443     O1483   2.230       .  S
Mg1443     O1454   2.319       .  S
O1444     Mg1486   2.155       .  S
O1444     Mg1469   2.106       .  S
O1444      C1465   1.231       .  S
O1445      C1476   1.267       .  A
O1445     Mg1469   2.283       .  S
C1446      O1448   1.267       .  A
C1446      O1460   1.276       .  A
C1446      C2341   1.481       .  S
O1447      C1475   1.265   1_556  A
O1447     Mg1449   2.290       .  S
O1448     Mg1480   2.218       .  S
Mg1449     O1455   2.143       .  S
Mg1449     O1463   2.269       .  S
Mg1449     O1451   2.291       .  S
C1450      O1488   1.277       .  A
C1450      O1456   1.267   1_554  A
C1450      C1772   1.454       .  S
O1451      C1458   1.272       .  A
H1452      C1465   1.081       .  S
C1453      O1467   1.235       .  S
C1453      O1468   1.269       .  A
C1453      H1478   1.081       .  S
O1454      C1477   1.273       .  A
O1455     Mg1469   2.167       .  S
O1456     Mg1486   2.260       .  S
C1457      O1470   1.268       .  A
C1457      O1462   1.271       .  A
C1457      C2114   1.491       .  S
C1458      O1485   1.262       .  A
C1458      C2098   1.446       .  S
Mg1459     O1466   2.160       .  S
Mg1459     O1467   2.173       .  S
Mg1459     O1460   2.320       .  S
Mg1459     O1461   2.282       .  S
Mg1459     O1488   2.283       .  S
O1461      C1465   1.264   1_554  A
O1462     Mg1469   2.263       .  S
O1463      C1482   1.274   1_556  A
O1464      C1484   1.270       .  A
O1464     Mg1480   2.275       .  S
O1466     Mg1480   2.147       .  S
O1466      C1477   1.237       .  S
O1467     Mg1486   2.142   1_554  S
O1468     Mg1480   2.295       .  S
Mg1469     O1485   2.200       .  S
O1470     Mg1486   2.262       .  S
H1471      C1476   1.081   1_554  S
O1472     Mg1480   2.136       .  S
O1472      C1475   1.231       .  S
H1473      C1475   1.081       .  S
H1474      C1477   1.081       .  S
O1479     Mg1486   2.290       .  S
C1482      O1487   1.271       .  A
C1482      C1745   1.460       .  S
O1483      C1484   1.263       .  A
C1484      C2178   1.486       .  S
O1489     Mg1491   2.176   1_556  S
O1489     Mg3945   2.179   1_455  S
O1489      C1524   1.234       .  S
C1490      O1503   1.234       .  S
C1490      O1527   1.268       .  A
C1490      H1529   1.081       .  S
Mg1491     O3968   2.172   1_455  S
Mg1491     O3983   2.263       .  S
Mg1491     O3979   2.261   1_455  S
Mg1491     O1502   2.294       .  S
O1492     Mg3982   2.177   1_455  S
O1492     Mg1517   2.170       .  S
O1492      C1513   1.235       .  S
O1493      C1524   1.269       .  A
O1493     Mg1517   2.304       .  S
C1494      O1496   1.272       .  A
C1494      O1508   1.280       .  A
C1494      C2162   1.496       .  S
O1495      C1523   1.270   1_556  A
O1495     Mg1497   2.298       .  S
O1496     Mg1528   2.274       .  S
Mg1497     O3937   2.170       .  S
Mg1497     O1503   2.167       .  S
Mg1497     O1511   2.302       .  S
Mg1497     O3947   2.329       .  S
C1498      O1536   1.273   1_556  A
C1498      O1504   1.268       .  A
C1498      C1746   1.460       .  S
O1499      C1506   1.281       .  A
O1499     Mg3945   2.339   1_455  S
H1500      C1513   1.081       .  S
C1501      O1515   1.234       .  S
C1501      O1516   1.270       .  A
C1501      H1526   1.081   1_554  S
O1502      C1525   1.268       .  A
O1503     Mg3965   2.167       .  S
O1504     Mg3982   2.278       .  S
C1505      O1518   1.273   1_455  A
C1505      O1510   1.280       .  A
C1505      C2069   1.510       .  S
C1506      O1533   1.278       .  A
C1506      C2082   1.502       .  S
Mg1507     O1514   2.145   1_655  S
Mg1507     O3963   2.179       .  S
Mg1507     O3956   2.341       .  S
Mg1507     O1509   2.301   1_655  S
Mg1507     O1536   2.270       .  S
O1508     Mg3955   2.345       .  S
O1509      C1513   1.270   1_554  A
O1510     Mg1517   2.349       .  S
O1511      C1530   1.277   1_556  A
O1512      C1532   1.273       .  A
O1512     Mg1528   2.315       .  S
O1514     Mg3976   2.159   1_455  S
O1514      C1525   1.233       .  S
O1515     Mg3955   2.178       .  S
O1515     Mg1534   2.176   1_554  S
O1516     Mg1528   2.304       .  S
Mg1517     O3951   2.165   1_455  S
Mg1517     O1533   2.305       .  S
O1518     Mg3982   2.259       .  S
H1519      C1524   1.081   1_554  S
O1520     Mg3939   2.170       .  S
O1520     Mg1528   2.161       .  S
O1520      C1523   1.235       .  S
H1521      C1523   1.081       .  S
H1522      C1525   1.081       .  S
O1527     Mg1534   2.297       .  S
Mg1528     O3962   2.156       .  S
C1530      O1535   1.268       .  A
C1530      C4182   1.470       .  S
O1531      C1532   1.271       .  A
O1531     Mg3939   2.248       .  S
C1532      C2290   1.503       .  S
Mg1534     O3940   2.173       .  S
Mg1534     O3952   2.281       .  S
Mg1534     O3966   2.267       .  S
O1535     Mg3939   2.278       .  S
O1537     Mg1539   2.142       .  S
O1537     Mg1545   2.182       .  S
O1537      C1572   1.236       .  S
C1538      O1551   1.236       .  S
C1538      O1575   1.273       .  A
C1538      H1577   1.081       .  S
Mg1539     O1568   2.167       .  S
Mg1539     O1583   2.316       .  S
Mg1539     O1579   2.299       .  S
Mg1539     O1550   2.302       .  S
O1540     Mg1582   2.156       .  S
O1540     Mg1565   2.172       .  S
O1540      C1561   1.234       .  S
O1541      C1572   1.270       .  A
O1541     Mg1565   2.293       .  S
C1542      O1544   1.268       .  A
C1542      O1556   1.273       .  A
C1542      C2050   1.477       .  S
O1543      C1571   1.265       .  A
O1543     Mg1545   2.284       .  S
O1544     Mg1576   2.254       .  S
Mg1545     O1551   2.154       .  S
Mg1545     O1547   2.274       .  S
C1546      O1584   1.273       .  A
C1546      O1552   1.281       .  A
C1546      C1842   1.482       .  S
O1547      C1554   1.266       .  A
H1548      C1561   1.081       .  S
C1549      O1563   1.236       .  S
C1549      O1564   1.271       .  A
C1549      H1574   1.081       .  S
O1550      C1573   1.270       .  A
O1551     Mg1565   2.149       .  S
O1552     Mg1582   2.344       .  S
C1553      O1566   1.273       .  A
C1553      O1558   1.270       .  A
C1553      C2018   1.476       .  S
C1554      O1581   1.271       .  A
Mg1555     O1562   2.164       .  S
Mg1555     O1563   2.168       .  S
Mg1555     O1556   2.277       .  S
Mg1555     O1557   2.304       .  S
Mg1555     O1584   2.299       .  S
O1557      C1561   1.269       .  A
O1558     Mg1565   2.275       .  S
O1559      C1578   1.271       .  A
O1560      C1580   1.273       .  A
O1560     Mg1576   2.288       .  S
O1562     Mg1576   2.165       .  S
O1562      C1573   1.235       .  S
O1563     Mg1582   2.142       .  S
O1564     Mg1576   2.299       .  S
Mg1565     O1581   2.288       .  S
O1566     Mg1582   2.285       .  S
H1567      C1572   1.081       .  S
O1568     Mg1576   2.140       .  S
O1568      C1571   1.232       .  S
H1569      C1571   1.081       .  S
H1570      C1573   1.081       .  S
O1575     Mg1582   2.320       .  S
C1578      C1830   1.466       .  S
O1579      C1580   1.277       .  A
C1580      C2034   1.494       .  S
C1585      C2117   1.480       .  S
C1585      C1586   1.413       .  A
C1585      C1590   1.397       .  A
C1586      C2085   1.501       .  S
C1586      C1587   1.418       .  A
C1587      H1592   1.082       .  S
C1587      C1588   1.418       .  A
C1588      C1986   1.513       .  S
C1588      C1589   1.422       .  A
C1589      C2021   1.484       .  S
C1589      C1590   1.398       .  A
C1590      H1591   1.084       .  S
C1593      C2130   1.490       .  S
C1593      C1594   1.423       .  A
C1593      C1598   1.411       .  A
C1594      C2066   1.495       .  S
C1594      C1595   1.404       .  A
C1595      H1600   1.083       .  S
C1595      C1596   1.403       .  A
C1596      C1970   1.487       .  S
C1596      C1597   1.416       .  A
C1597      C2002   1.497       .  S
C1597      C1598   1.404       .  A
C1598      H1599   1.083       .  S
O1601     Mg1603   2.171       .  S
O1601     Mg1609   2.186       .  S
O1601      C1636   1.235       .  S
C1602      O1615   1.233       .  S
C1602      O1639   1.267       .  A
C1602      H1641   1.081       .  S
Mg1603     O1632   2.163       .  S
Mg1603     O1647   2.296       .  S
Mg1603     O1643   2.318       .  S
Mg1603     O1614   2.303       .  S
O1604     Mg1646   2.175       .  S
O1604     Mg1629   2.164       .  S
O1604      C1625   1.235       .  S
O1605      C1636   1.270       .  A
O1605     Mg1629   2.302       .  S
C1606      O1608   1.274       .  A
C1606      O1620   1.268       .  A
C1606      C1941   1.490       .  S
O1607      C1635   1.269       .  A
O1607     Mg1609   2.299       .  S
O1608     Mg1640   2.297       .  S
Mg1609     O1615   2.144       .  S
Mg1609     O4071   2.261       .  S
Mg1609     O1611   2.283       .  S
C1610      O1648   1.265       .  A
C1610      O1616   1.277       .  A
C1610      C1868   1.469       .  S
O1611      C1618   1.270       .  A
H1612      C1625   1.081       .  S
C1613      O1627   1.237       .  S
C1613      O1628   1.272       .  A
C1613      H1638   1.081       .  S
O1614      C1637   1.268       .  A
O1615     Mg1629   2.165       .  S
C1617      O1630   1.274       .  A
C1617      O1622   1.277       .  A
C1618      O1645   1.276       .  A
C1618      C4437   1.505       .  S
Mg1619     O1626   2.147       .  S
Mg1619     O1627   2.167       .  S
Mg1619     O1620   2.278       .  S
Mg1619     O1621   2.295       .  S
O1621      C1625   1.269       .  A
O1622     Mg1629   2.307       .  S
O1623      C1642   1.266       .  A
O1623     Mg4057   2.243   1_455  S
O1624      C1644   1.274       .  A
O1624     Mg1640   2.312       .  S
O1626     Mg1640   2.142       .  S
O1626      C1637   1.233       .  S
O1627     Mg1646   2.145       .  S
O1628     Mg1640   2.307       .  S
Mg1629     O1645   2.308       .  S
O1630     Mg1646   2.266       .  S
H1631      C1636   1.081       .  S
O1632     Mg1640   2.160       .  S
O1632      C1635   1.234       .  S
H1633      C1635   1.081       .  S
H1634      C1637   1.081       .  S
O1639     Mg1646   2.296       .  S
C1642      O4095   1.273       .  A
C1642      C1841   1.453       .  S
O1643      C1644   1.279       .  A
C1644      C1957   1.513       .  S
O1647      C4090   1.276       .  A
O1649     Mg1651   2.153       .  S
O1649     Mg1657   2.165       .  S
O1649      C1684   1.234       .  S
C1650      O1663   1.234       .  S
C1650      O1687   1.269       .  A
C1650      H1689   1.081       .  S
Mg1651     O1680   2.171       .  S
Mg1651     O1695   2.271       .  S
Mg1651     O1691   2.243       .  S
Mg1651     O1662   2.293       .  S
O1652     Mg1694   2.165       .  S
O1652     Mg1677   2.165       .  S
O1652      C1673   1.234       .  S
O1653      C1684   1.270       .  A
O1653     Mg1677   2.307       .  S
C1654      O1656   1.269       .  A
C1654      O1668   1.277       .  A
C1654      C4421   1.481       .  S
O1655      C1683   1.267       .  A
O1655     Mg1657   2.293       .  S
O1656     Mg1688   2.239       .  S
Mg1657     O1663   2.161       .  S
Mg1657     O1671   2.267       .  S
Mg1657     O1659   2.303       .  S
C1658      O1696   1.274       .  A
C1658      O4112   1.270       .  A
C1658      C1834   1.464       .  S
O1659      C1666   1.272       .  A
H1660      C1673   1.081       .  S
C1661      O1675   1.234       .  S
C1661      O1676   1.270       .  A
C1661      H1686   1.081       .  S
O1662      C1685   1.267       .  A
O1663     Mg1677   2.150       .  S
O1664      C4106   1.269       .  A
O1664     Mg1694   2.283       .  S
C1665      O1678   1.270       .  A
C1665      O1670   1.273       .  A
C1665      C1906   1.496       .  S
C1666      O1693   1.273       .  A
C1666      C1890   1.498       .  S
Mg1667     O1674   2.165       .  S
Mg1667     O1675   2.164       .  S
Mg1667     O1668   2.317       .  S
Mg1667     O1669   2.306       .  S
Mg1667     O4144   2.284       .  S
O1669      C1673   1.270       .  A
O1670     Mg1677   2.308       .  S
O1671      C1690   1.271       .  A
O1672      C1692   1.276       .  A
O1672     Mg1688   2.332       .  S
O1674     Mg1688   2.164       .  S
O1674      C1685   1.233       .  S
O1675     Mg1694   2.164       .  S
O1676     Mg1688   2.307       .  S
Mg1677     O1693   2.271       .  S
O1678     Mg1694   2.262       .  S
H1679      C1684   1.081       .  S
O1680     Mg1688   2.141       .  S
O1680      C1683   1.233       .  S
H1681      C1683   1.081       .  S
H1682      C1685   1.081       .  S
O1687     Mg1694   2.306       .  S
C1690      O1695   1.267       .  A
C1690      C1866   1.455       .  S
O1691      C1692   1.270       .  A
C1692      C1874   1.497       .  S
O1696     Mg4115   2.281   1_455  S
C1697      C2101   1.445       .  S
C1697      C1698   1.419       .  A
C1697      C1702   1.397       .  A
C1698      C2146   1.528       .  S
C1698      C1699   1.415       .  A
C1699      H1704   1.083       .  S
C1699      C1700   1.409       .  A
C1700      C1925   1.484       .  S
C1700      C1701   1.414       .  A
C1701      C1877   1.486       .  S
C1701      C1702   1.395       .  A
C1702      H1703   1.085       .  S
C1705      C2389   1.497       .  S
C1705      C1706   1.422       .  A
C1705      C1710   1.414       .  A
C1706      C2245   1.489       .  S
C1706      C1707   1.393       .  A
C1707      H1712   1.085       .  S
C1707      C4156   1.395       .  A
C1708      C1909   1.485       .  S
C1708      C4155   1.402       .  A
C1708      C1709   1.418       .  A
C1709      C1954   1.497       .  S
C1709      C4158   1.410       .  A
C1710      H1711   1.082       .  S
C1710      C4157   1.411       .  A
C1713      C2405   1.443       .  S
C1713      C1714   1.419       .  A
C1713      C1718   1.392       .  A
C1714      C2213   1.529       .  S
C1714      C1715   1.421       .  A
C1715      H1720   1.082       .  S
C1715      C1716   1.408       .  A
C1716      C1893   1.494       .  S
C1716      C1717   1.412       .  A
C1717      C2053   1.479       .  S
C1717      C1718   1.392       .  A
C1718      H1719   1.085       .  S
C1721      C2261   1.500       .  S
C1721      C1722   1.422       .  A
C1721      C1726   1.415       .  A
C1722      C2197   1.486       .  S
C1722      C1723   1.398   1_565  A
C1723      H1728   1.085       .  S
C1724      C1938   1.481       .  S
C1724      C1725   1.415       .  A
C1725      C2037   1.489       .  S
C1726      H1727   1.084       .  S
O1729     Mg1737   2.161   1_556  S
O1729      C1764   1.234       .  S
C1730      O1743   1.236       .  S
C1730      O1767   1.272       .  A
C1730      H1769   1.081       .  S
Mg1731     O1760   2.172   1_556  S
Mg1731     O1775   2.332   1_556  S
Mg1731     O1771   2.250   1_556  S
Mg1731     O1742   2.307       .  S
O1732     Mg1774   2.158   1_556  S
O1732     Mg1757   2.163       .  S
O1732      C1753   1.233       .  S
O1733      C4212   1.268       .  A
O1733     Mg1757   2.297       .  S
C1734      O1736   1.274   1_655  A
C1734      O4196   1.267   1_554  A
C1734      C3978   1.462       .  S
O1735     Mg1737   2.310       .  S
O1736     Mg1768   2.287       .  S
Mg1737     O4191   2.175   1_455  S
Mg1737     O1751   2.285       .  S
Mg1737     O1739   2.257       .  S
C1738      O1744   1.278   1_545  A
O1739      C1746   1.266   1_454  A
H1740      C1753   1.081       .  S
C1741      O1755   1.233       .  S
C1741      O4204   1.266       .  A
C1741      H1766   1.081       .  S
O1742      C1765   1.269       .  A
O1743     Mg4185   2.175       .  S
O1743     Mg1757   2.188   1_554  S
O1744     Mg1774   2.323   1_556  S
C1745      O1758   1.270       .  A
C1745      O1750   1.273       .  A
C1746      O4221   1.274       .  A
Mg1747     O4202   2.169       .  S
Mg1747     O1755   2.168   1_556  S
Mg1747     O1748   2.269       .  S
Mg1747     O1749   2.294       .  S
Mg1747     O1776   2.271       .  S
O1748      C4182   1.267   1_556  A
O1750     Mg1757   2.301   1_554  S
O1751      C1770   1.269       .  A
O1752      C1772   1.272       .  A
O1752     Mg1768   2.286       .  S
O1754     Mg4195   2.169   1_455  S
O1754     Mg1768   2.190   1_556  S
O1754      C1765   1.234       .  S
O1756      C4189   1.265       .  A
O1756     Mg1768   2.284   1_655  S
Mg1757     O1773   2.270       .  S
O1758     Mg1774   2.257       .  S
H1759      C1764   1.081       .  S
O1760     Mg1768   2.178       .  S
O1760      C1763   1.232       .  S
H1761      C1763   1.081       .  S
H1762      C1765   1.081       .  S
C1764      O4181   1.268       .  A
O1767     Mg1774   2.311       .  S
O1771      C1772   1.270       .  A
O1773      C4194   1.271       .  A
O1777     Mg1779   2.175       .  S
O1777     Mg1785   2.183       .  S
O1777      C1812   1.233       .  S
C1778      O1791   1.234       .  S
C1778      O1815   1.269       .  A
C1778      H1817   1.081       .  S
Mg1779     O1808   2.173       .  S
Mg1779     O1823   2.289       .  S
Mg1779     O1819   2.295       .  S
Mg1779     O1790   2.293       .  S
O1780     Mg1822   2.182       .  S
O1780     Mg1805   2.157       .  S
O1780      C1801   1.233       .  S
O1781      C1812   1.268       .  A
O1781     Mg1805   2.302       .  S
C1782      O1784   1.271       .  A
C1782      O1796   1.273       .  A
O1783      C1811   1.266       .  A
O1783     Mg1785   2.293       .  S
O1784     Mg1816   2.269       .  S
Mg1785     O1791   2.180       .  S
Mg1785     O1799   2.307       .  S
Mg1785     O1787   2.310       .  S
C1786      O1824   1.276       .  A
C1786      O1792   1.272       .  A
O1787      C1794   1.277       .  A
H1788      C1801   1.081       .  S
C1789      O1803   1.233       .  S
C1789      O1804   1.266       .  A
C1789      H1814   1.081       .  S
O1790      C1813   1.267       .  A
O1791     Mg1805   2.194       .  S
O1792     Mg1822   2.290       .  S
C1793      O1806   1.268       .  A
C1793      O1798   1.273       .  A
C1794      O1821   1.272       .  A
Mg1795     O1802   2.163       .  S
Mg1795     O1803   2.173       .  S
Mg1795     O1796   2.279       .  S
Mg1795     O1797   2.296       .  S
Mg1795     O1824   2.301       .  S
O1797      C1801   1.267       .  A
O1798     Mg1805   2.293       .  S
O1799      C1818   1.278       .  A
O1800      C1820   1.272       .  A
O1800     Mg1816   2.285       .  S
O1802     Mg1816   2.194       .  S
O1802      C1813   1.233       .  S
O1803     Mg1822   2.143       .  S
O1804     Mg1816   2.287       .  S
Mg1805     O1821   2.275       .  S
O1806     Mg1822   2.260       .  S
H1807      C1812   1.081       .  S
O1808     Mg1816   2.152       .  S
O1808      C1811   1.232       .  S
H1809      C1811   1.081       .  S
H1810      C1813   1.081       .  S
O1815     Mg1822   2.302       .  S
C1818      O1823   1.273       .  A
O1819      C1820   1.273       .  A
O1825     Mg1827   2.175       .  S
O1825     Mg1833   2.169       .  S
O1825      C1860   1.234       .  S
C1826      O1839   1.233       .  S
C1826      O1863   1.267       .  A
C1826      H1865   1.081       .  S
Mg1827     O1856   2.182       .  S
Mg1827     O1871   2.259       .  S
Mg1827     O1867   2.286       .  S
Mg1827     O1838   2.296       .  S
O1828     Mg1870   2.194       .  S
O1828     Mg1853   2.166       .  S
O1828      C1849   1.235       .  S
O1829      C1860   1.269       .  A
O1829     Mg1853   2.307       .  S
C1830      O1832   1.272       .  A
C1830      O1844   1.276       .  A
O1831      C1859   1.270       .  A
O1831     Mg1833   2.302       .  S
O1832     Mg1864   2.281       .  S
Mg1833     O1839   2.147       .  S
Mg1833     O1847   2.275       .  S
Mg1833     O1835   2.320       .  S
C1834      O1872   1.273       .  A
C1834      O1840   1.269       .  A
O1835      C1842   1.277       .  A
H1836      C1849   1.081       .  S
C1837      O1851   1.232       .  S
C1837      O1852   1.268       .  A
C1837      H1862   1.081       .  S
O1838      C1861   1.268       .  A
O1839     Mg1853   2.162       .  S
O1840     Mg1870   2.279       .  S
C1841      O1854   1.267       .  A
C1841      O1846   1.273       .  A
C1842      O1869   1.276       .  A
Mg1843     O1850   2.159       .  S
Mg1843     O1851   2.159       .  S
Mg1843     O1844   2.304       .  S
Mg1843     O1845   2.301       .  S
Mg1843     O1872   2.286       .  S
O1845      C1849   1.270       .  A
O1846     Mg1853   2.277       .  S
O1847      C1866   1.272       .  A
O1848      C1868   1.273       .  A
O1848     Mg1864   2.287       .  S
O1850     Mg1864   2.171       .  S
O1850      C1861   1.233       .  S
O1851     Mg1870   2.155       .  S
O1852     Mg1864   2.301       .  S
Mg1853     O1869   2.315       .  S
O1854     Mg1870   2.254       .  S
H1855      C1860   1.081       .  S
O1856     Mg1864   2.154       .  S
O1856      C1859   1.235       .  S
H1857      C1859   1.081       .  S
H1858      C1861   1.081       .  S
O1863     Mg1870   2.291       .  S
C1866      O1871   1.266       .  A
O1867      C1868   1.270       .  A
C1873      H1880   1.085       .  S
C1873      C1874   1.411       .  A
C1873      C1878   1.405       .  A
C1874      C1875   1.420       .  A
C1875      C1876   1.411       .  A
C1875      C1882   1.518       .  S
C1876      H1881   1.083       .  S
C1876      C1877   1.406       .  A
C1877      C1878   1.415       .  A
C1878      C1879   1.519       .  S
C1879      F1883   1.384       .  S
C1879      F1884   1.380       .  S
C1879      F1885   1.384       .  S
C1882      F1886   1.385       .  S
C1882      F1887   1.382       .  S
C1882      F1888   1.383       .  S
C1889      H1896   1.079       .  S
C1889      C1890   1.410       .  A
C1889      C1894   1.407       .  A
C1890      C1891   1.423       .  A
C1891      C1892   1.409       .  A
C1891      C1898   1.520       .  S
C1892      H1897   1.081       .  S
C1892      C1893   1.405       .  A
C1893      C1894   1.415       .  A
C1894      C1895   1.520       .  S
C1895      F1899   1.385       .  S
C1895      F1900   1.382       .  S
C1895      F1901   1.383       .  S
C1898      F1902   1.382       .  S
C1898      F1903   1.384       .  S
C1898      F1904   1.385       .  S
C1905      H4360   1.084       .  S
C1905      C1906   1.407       .  A
C1905      C4358   1.406       .  A
C1906      C1907   1.427       .  A
C1907      C1908   1.407       .  A
C1907      C1914   1.520       .  S
C1908      H1913   1.083       .  S
C1908      C1909   1.400       .  A
C1909      C4358   1.420       .  A
C1910      C4353   1.404       .  A
C1910      C4357   1.412   1_455  A
C1910      C1911   1.517       .  S
C1911      F1915   1.385       .  S
C1911      F1916   1.381       .  S
C1911      F1917   1.377       .  S
H1912      C4353   1.082       .  S
C1914      F1918   1.380       .  S
C1914      F1919   1.383       .  S
C1914      F1920   1.385       .  S
C1921      H1928   1.084       .  S
C1921      C1922   1.410       .  A
C1921      C1926   1.409       .  A
C1922      C1923   1.424       .  A
C1923      C1924   1.406       .  A
C1924      H1929   1.083       .  S
C1924      C1925   1.400       .  A
C1925      C1926   1.416       .  A
C1926      C1927   1.518       .  S
C1927      F1931   1.383       .  S
C1927      F1932   1.382       .  S
C1927      F1933   1.383       .  S
C1930      F1935   1.384       .  S
C1930      F1936   1.385       .  S
C1937      H1944   1.083       .  S
C1937      C1938   1.396       .  A
C1937      C1942   1.403       .  A
C1938      C1939   1.418       .  A
C1939      C1940   1.409       .  A
C1939      C1946   1.517       .  S
C1940      H1945   1.085       .  S
C1940      C1941   1.405       .  A
C1941      C1942   1.427       .  A
C1942      C1943   1.523       .  S
C1943      F1947   1.385       .  S
C1943      F1948   1.382       .  S
C1943      F1949   1.384       .  S
C1946      F1951   1.381       .  S
C1946      F1952   1.384       .  S
C1953      H1960   1.083       .  S
C1953      C1954   1.399       .  A
C1953      C1958   1.412       .  A
C1954      C4403   1.418       .  A
C1955      C4402   1.423   1_455  A
C1955      C4404   1.411       .  A
C1955      C1962   1.519       .  S
C1956      H4409   1.084       .  S
C1956      C4403   1.413       .  A
C1956      C1957   1.411       .  A
C1957      C1958   1.434       .  A
C1958      C1959   1.523       .  S
C1959      F1963   1.385       .  S
C1959      F1964   1.384       .  S
C1959      F1965   1.383       .  S
H1961      C4404   1.084       .  S
C1962      F1966   1.382       .  S
C1962      F1967   1.384       .  S
C1962      F1968   1.381       .  S
C1969      H1976   1.081       .  S
C1969      C1970   1.404       .  A
C1969      C1974   1.404       .  A
C1970      C1971   1.418       .  A
C1971      C1972   1.407       .  A
C1971      C1978   1.522       .  S
C1972      H1977   1.083       .  S
C1972      C1973   1.406       .  A
C1973      C4102   1.480   1_455  S
C1973      C1974   1.417       .  A
C1974      C4423   1.519       .  S
C1975      C4422   1.520       .  S
C1975      F1979   1.385       .  S
C1975      F1980   1.381       .  S
C1975      F1981   1.384       .  S
C1978      F1982   1.381       .  S
C1978      F1983   1.382       .  S
C1978      F1984   1.384       .  S
C1985      H1992   1.082       .  S
C1985      C1986   1.406       .  A
C1985      C1990   1.415       .  A
C1986      C1987   1.422       .  A
C1987      C4436   1.416       .  A
C1987      C4442   1.519       .  S
C1988      H1993   1.082       .  S
C1988      C4435   1.412       .  A
C1988      C4437   1.409       .  A
C1989      C4066   1.514   1_455  S
C1989      C4436   1.409       .  A
C1989      C1990   1.430       .  A
C1990      C1991   1.521       .  S
C1991      F1995   1.385       .  S
C1991      F1996   1.382       .  S
C1991      F1997   1.384       .  S
C1994      C4435   1.519       .  S
C1994      F4446   1.381       .  S
C1994      F4447   1.383       .  S
C1994      F2000   1.384       .  S
F1998      C4442   1.380       .  S
F1999      C4442   1.383       .  S
C2001      H2008   1.080       .  S
C2001      C2002   1.403       .  A
C2001      C2006   1.410       .  A
C2002      C2003   1.414       .  A
C2003      C2004   1.410   1_565  A
C2003      C2010   1.520   1_565  S
C2004      H2009   1.078       .  S
C2004      C2005   1.412   1_545  A
C2005      C2006   1.427       .  A
C2006      C2007   1.521       .  S
C2007      F2011   1.385       .  S
C2007      F2013   1.384       .  S
C2010      F2014   1.381       .  S
C2010      F2015   1.382   1_545  S
C2010      F2016   1.385       .  S
C2017      H2024   1.083       .  S
C2017      C2018   1.401       .  A
C2017      C2022   1.409       .  A
C2018      C2019   1.420       .  A
C2019      C2020   1.397       .  A
C2019      C2026   1.517       .  S
C2020      H2025   1.082       .  S
C2020      C2021   1.396       .  A
C2021      C2022   1.421       .  A
C2022      C2023   1.518       .  S
C2023      F2027   1.385       .  S
C2023      F2028   1.380       .  S
C2023      F2029   1.383       .  S
C2026      F2030   1.375       .  S
C2026      F2031   1.384       .  S
C2026      F2032   1.385       .  S
C2033      H2040   1.084       .  S
C2033      C2034   1.407       .  A
C2033      C2038   1.409       .  A
C2034      C2035   1.423       .  A
C2035      C2036   1.407       .  A
C2035      C2042   1.518       .  S
C2036      H2041   1.084       .  S
C2036      C2037   1.401       .  A
C2037      C2038   1.420       .  A
C2038      C2039   1.517       .  S
C2039      F2043   1.383       .  S
C2039      F2044   1.382       .  S
C2042      F2046   1.382       .  S
C2042      F2047   1.384       .  S
C2042      F2048   1.385       .  S
C2049      H2056   1.083       .  S
C2049      C2050   1.404       .  A
C2049      C2054   1.399       .  A
C2050      C2051   1.417       .  A
C2051      C2052   1.407       .  A
C2051      C2058   1.518       .  S
C2052      H2057   1.083       .  S
C2052      C2053   1.404       .  A
C2053      C2054   1.415       .  A
C2054      C2055   1.523       .  S
C2055      F2059   1.384       .  S
C2055      F2060   1.380       .  S
C2055      F2061   1.383       .  S
C2058      F2062   1.382       .  S
C2058      F2063   1.384       .  S
C2058      F2064   1.385       .  S
C2065      H2072   1.083       .  S
C2065      C2066   1.405       .  A
C2065      C2070   1.414       .  A
C2066      C2067   1.415       .  A
C2067      C2068   1.408       .  A
C2067      C2074   1.517       .  S
C2068      H4521   1.084       .  S
C2068      C2069   1.414       .  A
C2069      C2070   1.425       .  A
C2070      C2071   1.518       .  S
C2071      F2075   1.385       .  S
C2071      F2076   1.383       .  S
C2071      F2077   1.381       .  S
H2073      C4516   1.082       .  S
C2074      F2078   1.384   1_455  S
C2074      F2079   1.379       .  S
C2074      F4528   1.383       .  S
F2080      C4522   1.378       .  S
C2081      H2088   1.084       .  S
C2081      C2082   1.409       .  A
C2081      C2086   1.412       .  A
C2082      C2083   1.419       .  A
C2083      C2084   1.413       .  A
C2083      C2090   1.517       .  S
C2084      H2089   1.082       .  S
C2084      C2085   1.407       .  A
C2085      C2086   1.420       .  A
C2086      C2087   1.519       .  S
C2087      F4539   1.384       .  S
C2087      F2092   1.381       .  S
C2087      F2093   1.382       .  S
C2090      F2094   1.384       .  S
C2090      F2095   1.380       .  S
C2090      F2096   1.384       .  S
F2091      C4535   1.384       .  S
C2097      H2104   1.079       .  S
C2097      C2098   1.826       .  A
C2097      C2102   1.831       .  A
C2098      C2099   1.849       .  A
C2099      C2100   1.840       .  A
C2099      C2106   1.493       .  S
C2100      H2105   1.086       .  S
C2100      C2101   1.849       .  A
C2101      C2102   1.850       .  A
C2102      C2103   1.499       .  S
C2103      F2107   1.382       .  S
C2103      F2108   1.381       .  S
C2103      F2109   1.381       .  S
C2106      F2110   1.382       .  S
C2106      F2111   1.382       .  S
C2106      F2112   1.382       .  S
C2113      H2120   1.085       .  S
C2113      C2114   1.408       .  A
C2113      C2118   1.399       .  A
C2114      C2115   1.425       .  A
C2115      C2116   1.409       .  A
C2115      C2122   1.521       .  S
C2116      H2121   1.082       .  S
C2116      C2117   1.402       .  A
C2117      C2118   1.414       .  A
C2118      C2119   1.520       .  S
C2119      F2123   1.385       .  S
C2119      F2124   1.381       .  S
C2119      F2125   1.382       .  S
C2122      F2126   1.383       .  S
C2122      F2127   1.383       .  S
C2122      F2128   1.385       .  S
C2129      H2136   1.083       .  S
C2129      C2130   1.402       .  A
C2129      C2134   1.408       .  A
C2130      C2131   1.423       .  A
C2131      C2132   1.407       .  A
C2131      C2138   1.519       .  S
C2132      H2137   1.085   1_565  S
C2132      C2133   1.402       .  A
C2133      C2134   1.424       .  A
C2134      C2135   1.521       .  S
C2135      F2139   1.385       .  S
C2135      F2140   1.384       .  S
C2138      F2142   1.379       .  S
C2138      F2143   1.383   1_565  S
C2138      F2144   1.384       .  S
C2145      H2152   1.081       .  S
C2145      C2146   1.413       .  A
C2145      C2150   1.409       .  A
C2146      C2147   1.446       .  A
C2147      C2148   1.407       .  A
C2147      C2154   1.582       .  S
C2148      H2153   1.084       .  S
C2148      C2149   1.385       .  A
C2149      C2150   1.413       .  A
C2150      C2151   1.519       .  S
C2151      F2157   1.382       .  S
C2154      F2158   1.415       .  S
C2154      F2159   2.439       .  S
C2154      F2160   1.419       .  S
C2161      H2168   1.083       .  S
C2161      C2162   1.406       .  A
C2161      C2166   1.414       .  A
C2162      C2163   1.418       .  A
C2163      C2164   1.412       .  A
C2163      C2170   1.519       .  S
C2164      H2169   1.081       .  S
C2164      C2165   1.409       .  A
C2165      C2166   1.424       .  A
C2166      C2167   1.521       .  S
C2167      F4619   1.385       .  S
C2167      F2172   1.381       .  S
C2167      F4621   1.383       .  S
C2170      F2174   1.380       .  S
C2170      F2175   1.384       .  S
C2170      F2176   1.385       .  S
F2171      C4615   1.384       .  S
F2173      C4615   1.383       .  S
C2177      H2184   1.083       .  S
C2177      C2178   1.407       .  A
C2177      C2182   1.401       .  A
C2178      C2179   1.428       .  A
C2179      C2180   1.403       .  A
C2179      C2186   1.523       .  S
C2180      H2185   1.083       .  S
C2180      C2181   1.397       .  A
C2181      C2182   1.418       .  A
C2182      C2183   1.524       .  S
C2183      F2187   1.385       .  S
C2183      F2188   1.381       .  S
C2183      F2189   1.382       .  S
C2186      F2190   1.383       .  S
C2186      F2191   1.384       .  S
C2186      F2192   1.385       .  S
C2193      H2200   1.084       .  S
C2193      C2194   1.409       .  A
C2193      C2198   1.403       .  A
C2194      C2195   1.423   1_565  A
C2196      H2201   1.081       .  S
C2197      C2198   1.414       .  A
C2198      C2199   1.518       .  S
C2199      F2203   1.384       .  S
C2199      F2204   1.382       .  S
C2199      F2205   1.382       .  S
C2202      F2206   1.383       .  S
C2202      F2207   1.383       .  S
C2202      F2208   1.385       .  S
C2209      H2216   1.084       .  S
C2209      C2210   1.388       .  A
C2209      C2214   1.412       .  A
C2210      C2211   1.408       .  A
C2211      C2212   1.405       .  A
C2211      C2218   1.518       .  S
C2212      H2217   1.080       .  S
C2212      C2213   1.413       .  A
C2213      C2214   1.451       .  A
C2214      C2215   1.590       .  S
C2215      F2219   1.418       .  S
C2215      F2220   1.416       .  S
C2215      F2221   2.436       .  S
C2218      F2222   1.383       .  S
C2218      F2223   1.383       .  S
C2218      F2224   1.385       .  S
C2225      H2232   1.084       .  S
C2225      C2226   1.408       .  A
C2225      C2230   1.399       .  A
C2226      C2227   1.430       .  A
C2227      C2228   1.404       .  A
C2227      C2234   1.524       .  S
C2228      H2233   1.081       .  S
C2228      C2229   1.397       .  A
C2229      C2230   1.413       .  A
C2230      C2231   1.520       .  S
C2231      F2235   1.382       .  S
C2231      F2236   1.383       .  S
C2231      F2237   1.381       .  S
C2234      F2238   1.384       .  S
C2234      F2239   1.382       .  S
C2234      F2240   1.385       .  S
C2241      H2248   1.082       .  S
C2241      C2242   1.406       .  A
C2241      C2246   1.403       .  A
C2242      C2243   1.430       .  A
C2243      C2244   1.412   1_455  A
C2243      C2250   1.521   1_455  S
C2244      H2249   1.083       .  S
C2244      C2245   1.400   1_655  A
C2245      C2246   1.418       .  A
C2246      C2247   1.522       .  S
C2247      F2251   1.383       .  S
C2247      F2252   1.382       .  S
C2247      F2253   1.379       .  S
C2250      F2254   1.383       .  S
C2250      F2255   1.383       .  S
C2250      F4704   1.385       .  S
F2256      C4698   1.385       .  S
C2257      H2264   1.084       .  S
C2257      C2258   1.409       .  A
C2257      C2262   1.406       .  A
C2258      C2259   1.422       .  A
C2259      C2260   1.411       .  A
C2259      C2266   1.519       .  S
C2260      H2265   1.081   1_565  S
C2260      C2261   1.407       .  A
C2261      C2262   1.421       .  A
C2262      C2263   1.520       .  S
C2263      F2267   1.384       .  S
C2263      F2268   1.383       .  S
C2263      F2269   1.379       .  S
C2266      F2270   1.382   1_565  S
C2266      F2271   1.384       .  S
C2266      F2272   1.385   1_565  S
C2273      H2280   1.081       .  S
C2273      C2274   1.408       .  A
C2273      C2278   1.412       .  A
C2274      C2275   1.417       .  A
C2275      C2276   1.410       .  A
C2275      C2282   1.519       .  S
C2276      H2281   1.083       .  S
C2276      C2277   1.409       .  A
C2277      C3742   1.498       .  S
C2277      C2278   1.421       .  A
C2278      C4727   1.519       .  S
C2279      C4726   1.520       .  S
C2279      F2283   1.383       .  S
C2279      F2284   1.380   1_655  S
C2279      F2285   1.384       .  S
C2282      F2286   1.380       .  S
C2282      F2287   1.381       .  S
C2282      F2288   1.385       .  S
C2289      H4744   1.082       .  S
C2289      C2290   1.412       .  A
C2289      C2294   1.406       .  A
C2290      C2291   1.429       .  A
C2291      C2292   1.411       .  A
C2291      C2298   1.521       .  S
C2292      H2297   1.083       .  S
C2292      C2293   1.401       .  A
C2293      C2294   1.411       .  A
C2294      C2295   1.516       .  S
C2295      F4747   1.378       .  S
C2295      F2300   1.382       .  S
C2295      F2301   1.385       .  S
H2296      C4737   1.082   1_455  S
C2298      F2302   1.383       .  S
C2298      F2303   1.384       .  S
C2298      F2304   1.385       .  S
F2299      C4743   1.380       .  S
C2305      C2306   1.404       .  A
C2305      C2310   1.413       .  A
C2306      C2307   1.428       .  A
C2307      C2308   1.411       .  A
C2307      C2314   1.521       .  S
C2308      H2313   1.080       .  S
C2308      C2309   1.402       .  A
C2309      C2310   1.427       .  A
C2310      C2311   1.518       .  S
C2311      F2316   1.378       .  S
C2311      F2317   1.384       .  S
C2314      F2318   1.379       .  S
C2314      F2319   1.384       .  S
C2314      F2320   1.385       .  S
C2321      H2328   1.083       .  S
C2321      C2322   1.400       .  A
C2321      C2326   1.412       .  A
C2322      C2323   1.415       .  A
C2323      C2324   1.408       .  A
C2323      C2330   1.519       .  S
C2324      H2329   1.084       .  S
C2324      C2325   1.412       .  A
C2325      C2326   1.428       .  A
C2326      C2327   1.520       .  S
C2327      F2331   1.385       .  S
C2327      F2332   1.383       .  S
C2330      F2334   1.384       .  S
C2330      F2335   1.379       .  S
C2330      F2336   1.380       .  S
C2337      H2344   1.083       .  S
C2337      C2338   1.403       .  A
C2337      C2342   1.407       .  A
C2338      C2339   1.418       .  A
C2339      C2340   1.401       .  A
C2339      C2346   1.516       .  S
C2340      H2345   1.085       .  S
C2340      C2341   1.404       .  A
C2341      C2342   1.420       .  A
C2342      C2343   1.520       .  S
C2343      F2347   1.385       .  S
C2343      F2348   1.382       .  S
C2343      F2349   1.384       .  S
C2346      F2350   1.383       .  S
C2346      F2351   1.380       .  S
C2346      F2352   1.383       .  S
C2353      H2360   1.082       .  S
C2353      C2354   1.406       .  A
C2353      C2358   1.399       .  A
C2354      C2355   1.420       .  A
C2355      C2356   1.397       .  A
C2355      C2362   1.521       .  S
C2356      H2361   1.083       .  S
C2356      C2357   1.401       .  A
C2357      C2358   1.416       .  A
C2358      C2359   1.522       .  S
C2359      F2363   1.384       .  S
C2359      F2364   1.383       .  S
C2359      F2365   1.380       .  S
C2362      F2366   1.382       .  S
C2362      F2367   1.384       .  S
C2362      F2368   1.384       .  S
C2369      H2376   1.083       .  S
C2369      C2370   1.409       .  A
C2370      C2371   1.413       .  A
C2371      C2372   1.400       .  A
C2371      C2378   1.518       .  S
C2372      H2377   1.084       .  S
C2373      C2374   1.421   1_545  A
C2374      C2375   1.517       .  S
C2375      F2379   1.385       .  S
C2375      F2380   1.381       .  S
C2375      F2381   1.383       .  S
C2378      F2382   1.382       .  S
C2378      F2383   1.381       .  S
C2378      F2384   1.384       .  S
C2385      H2392   1.083   1_455  S
C2385      C2386   1.402       .  A
C2385      C2390   1.414   1_455  A
C2386      C2387   1.420       .  A
C2387      C2388   1.402       .  A
C2387      C2394   1.522       .  S
C2388      H2393   1.080       .  S
C2388      C2389   1.400       .  A
C2389      C2390   1.425   1_455  A
C2390      C4839   1.519       .  S
C2391      C4838   1.519       .  S
C2391      F4843   1.385       .  S
C2391      F4844   1.383       .  S
C2391      F2397   1.381       .  S
C2394      F2398   1.384       .  S
C2394      F2399   1.380       .  S
C2394      F2400   1.385       .  S
F2395      C4839   1.385       .  S
F2396      C4839   1.383       .  S
C2401      H2408   1.080       .  S
C2401      C2402   1.832       .  A
C2401      C2406   1.832       .  A
C2402      C2403   1.851       .  A
C2403      C2404   1.842       .  A
C2403      C2410   1.494       .  S
C2404      H2409   1.083       .  S
C2404      C2405   1.848       .  A
C2405      C2406   1.846       .  A
C2406      C2407   1.500       .  S
C2407      F2411   1.382       .  S
C2407      F2412   1.382       .  S
C2407      F2413   1.381       .  S
C2410      F2414   1.382       .  S
C2410      F2415   1.382       .  S
C2410      F2416   1.380       .  S
C2417      H2424   1.082       .  S
C2417      C2418   1.400       .  A
C2417      C2422   1.410       .  A
C2418      C2419   1.414       .  A
C2419      C2420   1.405       .  A
C2419      C2426   1.520       .  S
C2420      H2425   1.084       .  S
C2420      C2421   1.412       .  A
C2421      C3690   1.504       .  S
C2421      C2422   1.427       .  A
C2422      C4871   1.517       .  S
C2423      C4870   1.516       .  S
C2423      F2427   1.384       .  S
C2423      F2428   1.383       .  S
C2423      F2429   1.383       .  S
C2426      F2430   1.382       .  S
C2426      F2431   1.381       .  S
C2426      F2432   1.383       .  S
C2433      H2440   1.081       .  S
C2433      C2434   1.404       .  A
C2433      C2438   1.405       .  A
C2434      C2435   1.425       .  A
C2435      C2436   1.404       .  A
C2435      C2442   1.522       .  S
C2436      H2441   1.085       .  S
C2436      C2437   1.401       .  A
C2437      C2438   1.418       .  A
C2438      C2439   1.519       .  S
C2439      F2443   1.385       .  S
C2439      F2444   1.377       .  S
C2439      F2445   1.383       .  S
C2442      F2446   1.383       .  S
C2442      F2447   1.380       .  S
C2442      F2448   1.385       .  S
O2449     Mg2451   2.157       .  S
O2449     Mg2457   2.135       .  S
O2449      C2484   1.236       .  S
C2450      O2463   1.234       .  S
C2450      O2487   1.271       .  A
C2450      H2489   1.081       .  S
Mg2451     O2480   2.155       .  S
Mg2451     O2495   2.321       .  S
Mg2451     O2491   2.313       .  S
Mg2451     O2462   2.316       .  S
O2452     Mg2494   2.169       .  S
O2452     Mg2477   2.181       .  S
O2452      C2473   1.238       .  S
O2453      C2484   1.273       .  A
O2453     Mg2477   2.319       .  S
C2454      O2456   1.262       .  A
C2454      O2468   1.263       .  A
C2454      C3626   1.466       .  S
O2455      C2483   1.273       .  A
O2455     Mg2457   2.315       .  S
O2456     Mg2488   2.288       .  S
Mg2457     O2463   2.192       .  S
Mg2457     O2459   2.290       .  S
C2458      O2496   1.268       .  A
C2458      O2464   1.280       .  A
C2458      C3042   1.477       .  S
O2459      C2466   1.272       .  A
H2460      C2473   1.081       .  S
C2461      O2475   1.238       .  S
C2461      O2476   1.275       .  A
C2461      H2486   1.081       .  S
O2462      C2485   1.272       .  A
O2463     Mg2477   2.155       .  S
O2464     Mg2494   2.344       .  S
C2465      O2478   1.273       .  A
C2465      O2470   1.276       .  A
C2465      C3661   1.489       .  S
C2466      O2493   1.272       .  A
Mg2467     O2474   2.164       .  S
Mg2467     O2475   2.125       .  S
Mg2467     O2468   2.272       .  S
Mg2467     O2469   2.323       .  S
Mg2467     O2496   2.282       .  S
O2469      C2473   1.275       .  A
O2470     Mg2477   2.323       .  S
O2471      C2490   1.271       .  A
O2472      C2492   1.267       .  A
O2472     Mg2488   2.265       .  S
O2474     Mg2488   2.139       .  S
O2474      C2485   1.235       .  S
O2475     Mg2494   2.136       .  S
O2476     Mg2488   2.325       .  S
Mg2477     O2493   2.301       .  S
O2478     Mg2494   2.273       .  S
H2479      C2484   1.081       .  S
O2480     Mg2488   2.158       .  S
O2480      C2483   1.237       .  S
H2481      C2483   1.081       .  S
H2482      C2485   1.081       .  S
O2487     Mg2494   2.314       .  S
C2490      C3010   1.470       .  S
O2491      C2492   1.275       .  A
C2492      C3610   1.483       .  S
C2497      C3658   1.501       .  S
C2497      C2498   1.425       .  A
C2497      C2502   1.404       .  A
C2498      C3594   1.480       .  S
C2498      C2499   1.403       .  A
C2499      H2504   1.085       .  S
C2499      C2500   1.399       .  A
C2500      C3581   1.489       .  S
C2500      C2501   1.414       .  A
C2501      C3562   1.479       .  S
C2501      C2502   1.398       .  A
C2502      H2503   1.082       .  S
C2505      C3642   1.490       .  S
C2505      C2506   1.410       .  A
C2505      C2510   1.401       .  A
C2506      C3546   1.490       .  S
C2506      C2507   1.412       .  A
C2507      H2512   1.084       .  S
C2507      C2508   1.416       .  A
C2508      C3533   1.507       .  S
C2508      C2509   1.428       .  A
C2509      C3517   1.492       .  S
C2509      C2510   1.407       .  A
C2510      H2511   1.084       .  S
O2513     Mg2515   2.141       .  S
O2513     Mg2521   2.145       .  S
O2513      C2548   1.233       .  S
C2514      O2527   1.235       .  S
C2514      O2551   1.268       .  A
C2514      H2553   1.081       .  S
Mg2515     O2544   2.158       .  S
Mg2515     O3783   2.319       .  S
Mg2515     O2555   2.220       .  S
Mg2515     O2526   2.304       .  S
O2516     Mg2558   2.164       .  S
O2516     Mg2541   2.148       .  S
O2516      C2537   1.234       .  S
O2517      C2548   1.267       .  A
O2517     Mg2541   2.291       .  S
C2518      O2520   1.275       .  A
C2518      O2532   1.277       .  A
O2519      C2547   1.271       .  A
O2519     Mg2521   2.309       .  S
O2520     Mg2552   2.287       .  S
Mg2521     O2527   2.146       .  S
Mg2521     O3759   2.288       .  S
Mg2521     O2523   2.329       .  S
C2522      O2560   1.273       .  A
C2522      C3017   1.459       .  S
O2523      C2530   1.277       .  A
H2524      C2537   1.081       .  S
C2525      O2539   1.233       .  S
C2525      O2540   1.269       .  A
C2525      H2550   1.081       .  S
O2526      C2549   1.271       .  A
O2527     Mg2541   2.167       .  S
O2528     Mg2558   2.283       .  S
C2529      O2542   1.267       .  A
C2529      O2534   1.275       .  A
C2529      C3466   1.496       .  S
C2530      O2557   1.274       .  A
C2530      C3482   1.504       .  S
Mg2531     O2538   2.166       .  S
Mg2531     O2539   2.157       .  S
Mg2531     O2532   2.318       .  S
Mg2531     O2533   2.300       .  S
O2533      C2537   1.269       .  A
O2534     Mg2541   2.290       .  S
O2535      C2554   1.273       .  A
O2535     Mg3745   2.275   1_545  S
O2536      C2556   1.276       .  A
O2536     Mg2552   2.331       .  S
O2538     Mg2552   2.169       .  S
O2538      C2549   1.237       .  S
O2539     Mg2558   2.164       .  S
O2540     Mg2552   2.305       .  S
Mg2541     O2557   2.266       .  S
O2542     Mg2558   2.251       .  S
H2543      C2548   1.081       .  S
O2544     Mg2552   2.167       .  S
O2544      C2547   1.236       .  S
H2545      C2547   1.081       .  S
H2546      C2549   1.081       .  S
O2551     Mg2558   2.291       .  S
C2554      O2559   1.270       .  A
C2554      C3044   1.465       .  S
O2555      C2556   1.267       .  A
C2556      C3597   1.499       .  S
O2559     Mg3739   2.307   1_545  S
O2561     Mg2563   2.144       .  S
O2561     Mg2569   2.155       .  S
O2561      C2596   1.234       .  S
C2562      O2575   1.237       .  S
C2562      O2599   1.273       .  A
C2562      H2601   1.081       .  S
Mg2563     O2592   2.157       .  S
Mg2563     O2607   2.291       .  S
Mg2563     O2603   2.220       .  S
Mg2563     O2574   2.298       .  S
O2564     Mg2606   2.140       .  S
O2564     Mg2589   2.171       .  S
O2564      C2585   1.235       .  S
O2565      C2596   1.269       .  A
O2565     Mg2589   2.297       .  S
C2566      O2568   1.271       .  A
C2566      O2580   1.280       .  A
C2566      C4773   1.511       .  S
O2567      C2595   1.268       .  A
O2567     Mg2569   2.298       .  S
O2568     Mg2600   2.258       .  S
Mg2569     O2575   2.155       .  S
Mg2569     O2583   2.280       .  S
Mg2569     O2571   2.300       .  S
C2570      O2608   1.274       .  A
C2570      O3800   1.273       .  A
C2570      C3006   1.465       .  S
O2571      C2578   1.273       .  A
H2572      C2585   1.081       .  S
C2573      O2587   1.234       .  S
C2573      O2588   1.269       .  A
C2573      H2598   1.081       .  S
O2574      C2597   1.270       .  A
O2575     Mg2589   2.153       .  S
O2576      C3794   1.272       .  A
O2576     Mg2606   2.306       .  S
C2577      O2590   1.268       .  A
C2577      O2582   1.274       .  A
C2577      C3418   1.502       .  S
C2578      O2605   1.274       .  A
C2578      C3434   1.478       .  S
Mg2579     O2586   2.141       .  S
Mg2579     O2587   2.159       .  S
Mg2579     O2580   2.357       .  S
Mg2579     O2581   2.316       .  S
Mg2579     O3832   2.262       .  S
O2581      C2585   1.272       .  A
O2582     Mg2589   2.301       .  S
O2583      C2602   1.273       .  A
O2584      C2604   1.272       .  A
O2584     Mg2600   2.282       .  S
O2586     Mg2600   2.153       .  S
O2586      C2597   1.236       .  S
O2587     Mg2606   2.174       .  S
O2588     Mg2600   2.305       .  S
Mg2589     O2605   2.285       .  S
O2590     Mg2606   2.270       .  S
H2591      C2596   1.081       .  S
O2592     Mg2600   2.150       .  S
O2592      C2595   1.233       .  S
H2593      C2595   1.081       .  S
H2594      C2597   1.081       .  S
O2599     Mg2606   2.315       .  S
C2602      O2607   1.268       .  A
C2602      C3018   1.464       .  S
O2603      C2604   1.262       .  A
C2604      C3450   1.490       .  S
O2608     Mg3803   2.270   1_545  S
C2609      C3453   1.472       .  S
C2609      C2610   1.414       .  A
C2609      C2614   1.391       .  A
C2610      C3498   1.506       .  S
C2610      C2611   1.418       .  A
C2611      H2616   1.081       .  S
C2611      C2612   1.420       .  A
C2612      C3389   1.506       .  S
C2612      C2613   1.421       .  A
C2613      C3405   1.481       .  S
C2613      C2614   1.391       .  A
C2614      H2615   1.085       .  S
O2617     Mg2619   2.128   1_554  S
O2617     Mg3849   2.157       .  S
O2617      C2652   1.237       .  S
C2618      O2631   1.234       .  S
C2618      O2655   1.269       .  A
C2618      H2657   1.081       .  S
Mg2619     O3872   2.157   1_545  S
Mg2619     O3887   2.337   1_545  S
Mg2619     O3883   2.262   1_545  S
Mg2619     O2630   2.325       .  S
O2620     Mg3886   2.165   1_545  S
O2620     Mg2645   2.153       .  S
O2620      C2641   1.234   1_554  S
O2621      C2652   1.271       .  A
O2621     Mg2645   2.301       .  S
C2622      O2624   1.268       .  A
C2622      O2636   1.272       .  A
C2622      C3373   1.477       .  S
O2623      C2651   1.270   1_554  A
O2623     Mg2625   2.302       .  S
O2624     Mg2656   2.269       .  S
Mg2625     O3841   2.155       .  S
Mg2625     O2631   2.170       .  S
Mg2625     O2639   2.298       .  S
Mg2625     O3851   2.260       .  S
C2626      O2664   1.276       .  A
C2626      O2632   1.279       .  A
C2626      C4186   1.474       .  S
O2627      C2634   1.264       .  A
O2627     Mg3849   2.256       .  S
H2628      C2641   1.081   1_554  S
C2629      O2643   1.236       .  S
C2629      O2644   1.273       .  A
C2629      H2654   1.081       .  S
O2630      C2653   1.273       .  A
O2631     Mg3869   2.159       .  S
O2632     Mg3886   2.314   1_546  S
C2633      O2646   1.282       .  A
C2633      O2638   1.272       .  A
C2633      C3530   1.514       .  S
C2634      O2661   1.272       .  A
C2634      C3578   1.481       .  S
Mg2635     O2642   2.189       .  S
Mg2635     O3867   2.177   1_545  S
Mg2635     O3860   2.317   1_545  S
Mg2635     O2637   2.300       .  S
Mg2635     O2664   2.311       .  S
O2636     Mg3859   2.292       .  S
O2637      C2641   1.268       .  A
O2638     Mg2645   2.300       .  S
O2639      C2658   1.271       .  A
O2640      C2660   1.274       .  A
O2640     Mg2656   2.307       .  S
O2642     Mg3880   2.158   1_545  S
O2642      C2653   1.236       .  S
O2643     Mg3859   2.168       .  S
O2643     Mg2662   2.171   1_556  S
O2644     Mg2656   2.317       .  S
Mg2645     O3855   2.152       .  S
Mg2645     O2661   2.266       .  S
O2646     Mg3886   2.351   1_545  S
H2647      C2652   1.081   1_556  S
O2648     Mg3843   2.169       .  S
O2648     Mg2656   2.163       .  S
O2648      C2651   1.235       .  S
H2649      C2651   1.081       .  S
H2650      C2653   1.081       .  S
O2655     Mg2662   2.301       .  S
Mg2656     O3866   2.153       .  S
C2658      O2663   1.279   1_554  A
C2658      C2994   1.483       .  S
O2659      C2660   1.273       .  A
O2659     Mg3843   2.275       .  S
C2660      C3357   1.488       .  S
Mg2662     O3844   2.161       .  S
Mg2662     O3856   2.307       .  S
Mg2662     O3870   2.327       .  S
O2663     Mg3843   2.340       .  S
O2665     Mg2667   2.124   1_556  S
O2665     Mg2673   2.182       .  S
O2665      C2700   1.235       .  S
C2666      O2679   1.235       .  S
C2666      O2703   1.270       .  A
C2666      H2705   1.081       .  S
Mg2667     O2696   2.148       .  S
Mg2667     O2711   2.296       .  S
Mg2667     O2707   2.233       .  S
Mg2667     O2678   2.319       .  S
O2668     Mg2710   2.147       .  S
O2668     Mg2693   2.120       .  S
O2668      C2689   1.231       .  S
O2669      C2700   1.268       .  A
O2669     Mg2693   2.284       .  S
C2670      O2672   1.266       .  A
C2670      O2684   1.276       .  A
C2670      C3565   1.478       .  S
O2671      C2699   1.264   1_556  A
O2671     Mg2673   2.284       .  S
O2672     Mg2704   2.213       .  S
Mg2673     O2679   2.143       .  S
Mg2673     O2687   2.269       .  S
Mg2673     O2675   2.278       .  S
C2674      O2712   1.277       .  A
C2674      O2680   1.267   1_554  A
C2674      C2996   1.456       .  S
O2675      C2682   1.270       .  A
H2676      C2689   1.081       .  S
C2677      O2691   1.236       .  S
C2677      O2692   1.271       .  A
C2677      H2702   1.081       .  S
O2678      C2701   1.273       .  A
O2679     Mg2693   2.159       .  S
O2680     Mg2710   2.263       .  S
C2681      O2694   1.265       .  A
C2681      O2686   1.272       .  A
C2681      C3338   1.492       .  S
C2682      O2709   1.264       .  A
C2682      C3322   1.443       .  S
Mg2683     O2690   2.152       .  S
Mg2683     O2691   2.180       .  S
Mg2683     O2684   2.320       .  S
Mg2683     O2685   2.285       .  S
Mg2683     O2712   2.286       .  S
O2685      C2689   1.264   1_554  A
O2686     Mg2693   2.276       .  S
O2687      C2706   1.273   1_556  A
O2688      C2708   1.269       .  A
O2688     Mg2704   2.271       .  S
O2690     Mg2704   2.143       .  S
O2690      C2701   1.236       .  S
O2691     Mg2710   2.144   1_554  S
O2692     Mg2704   2.300       .  S
Mg2693     O2709   2.211       .  S
O2694     Mg2710   2.248       .  S
H2695      C2700   1.081   1_554  S
O2696     Mg2704   2.133       .  S
O2696      C2699   1.231       .  S
H2697      C2699   1.081       .  S
H2698      C2701   1.081       .  S
O2703     Mg2710   2.299       .  S
C2706      O2711   1.271       .  A
C2706      C2969   1.462       .  S
O2707      C2708   1.262       .  A
C2708      C3402   1.489       .  S
O2713     Mg2715   2.173   1_556  S
O2713      C2748   1.234       .  S
C2714      O2727   1.234       .  S
C2714      O2751   1.268       .  A
C2714      H2753   1.081       .  S
Mg2715     O2726   2.292       .  S
O2716     Mg2741   2.151       .  S
O2716      C2737   1.235       .  S
O2717      C2748   1.270       .  A
O2717     Mg2741   2.307       .  S
C2718      O2720   1.275       .  A
C2718      O2732   1.280       .  A
C2718      C3386   1.500       .  S
O2719      C2747   1.270   1_556  A
O2719     Mg2721   2.303       .  S
O2720     Mg2752   2.287       .  S
Mg2721     O2727   2.157       .  S
Mg2721     O2735   2.290       .  S
C2722      O2760   1.273   1_556  A
C2722      O2728   1.267       .  A
C2722      C2970   1.455       .  S
O2723      C2730   1.280       .  A
H2724      C2737   1.081       .  S
C2725      O2739   1.234       .  S
C2725      O2740   1.269       .  A
C2725      H2750   1.081   1_554  S
O2726      C2749   1.267       .  A
C2729      O2742   1.272       .  A
C2729      O2734   1.278       .  A
C2729      C3293   1.513       .  S
C2730      O2757   1.274       .  A
C2730      C3306   1.491       .  S
Mg2731     O2738   2.148       .  S
Mg2731     O2733   2.294       .  S
Mg2731     O2760   2.264       .  S
O2733      C2737   1.269   1_554  A
O2734     Mg2741   2.348       .  S
O2735      C2754   1.275   1_556  A
O2736      C2756   1.276       .  A
O2736     Mg2752   2.329       .  S
O2738      C2749   1.232       .  S
O2739     Mg2758   2.173   1_554  S
O2740     Mg2752   2.301       .  S
Mg2741     O2757   2.276       .  S
H2743      C2748   1.081   1_554  S
O2744     Mg2752   2.168       .  S
O2744      C2747   1.235       .  S
H2745      C2747   1.081       .  S
H2746      C2749   1.081       .  S
O2751     Mg2758   2.295       .  S
C2754      O2759   1.268       .  A
O2755      C2756   1.272       .  A
C2756      C3514   1.510       .  S
O2761     Mg2763   2.142       .  S
O2761     Mg2769   2.176       .  S
O2761      C2796   1.236       .  S
C2762      O2775   1.236       .  S
C2762      O2799   1.273       .  A
C2762      H2801   1.081       .  S
Mg2763     O2792   2.169       .  S
Mg2763     O2807   2.319   1_545  S
Mg2763     O2803   2.304       .  S
Mg2763     O2774   2.303       .  S
O2764     Mg2806   2.155       .  S
O2764     Mg2789   2.161       .  S
O2764      C2785   1.233       .  S
O2765      C2796   1.269       .  A
O2765     Mg2789   2.291       .  S
C2766      O2768   1.268       .  A
C2766      O2780   1.271       .  A
C2766      C3274   1.476       .  S
O2767      C2795   1.266       .  A
O2767     Mg2769   2.290       .  S
O2768     Mg2800   2.257       .  S
Mg2769     O2775   2.169       .  S
Mg2769     O4007   2.283   1_545  S
Mg2769     O2771   2.284       .  S
C2770      O2808   1.272       .  A
C2770      O2776   1.281       .  A
C2770      C3066   1.484       .  S
O2771      C2778   1.268       .  A
H2772      C2785   1.081       .  S
C2773      O2787   1.238       .  S
C2773      O2788   1.273       .  A
C2773      H2798   1.081       .  S
O2774      C2797   1.270       .  A
O2775     Mg2789   2.157       .  S
O2776     Mg2806   2.349       .  S
C2777      O2790   1.274       .  A
C2777      O2782   1.270       .  A
C2777      C3242   1.479       .  S
C2778      O2805   1.270       .  A
C2778      C4453   1.499   1_545  S
Mg2779     O2786   2.170       .  S
Mg2779     O2787   2.166       .  S
Mg2779     O2780   2.273       .  S
Mg2779     O2781   2.300       .  S
Mg2779     O2808   2.300       .  S
O2781      C2785   1.268       .  A
O2782     Mg2789   2.280       .  S
O2783      C2802   1.271       .  A
O2783     Mg3993   2.274       .  S
O2784      C2804   1.273       .  A
O2784     Mg2800   2.300       .  S
O2786     Mg2800   2.154       .  S
O2786      C2797   1.235       .  S
O2787     Mg2806   2.145       .  S
O2788     Mg2800   2.310       .  S
Mg2789     O2805   2.265       .  S
O2790     Mg2806   2.285       .  S
H2791      C2796   1.081   1_565  S
O2792     Mg2800   2.144       .  S
O2792      C2795   1.233       .  S
H2793      C2795   1.081       .  S
H2794      C2797   1.081       .  S
O2799     Mg2806   2.322       .  S
C2802      O4031   1.279       .  A
C2802      C3054   1.465       .  S
O2803      C2804   1.277       .  A
C2804      C3258   1.499       .  S
O2807      C4026   1.279       .  A
C2809      C3341   1.485       .  S
C2809      C2810   1.415       .  A
C2809      C2814   1.399       .  A
C2810      C3309   1.496       .  S
C2810      C2811   1.414       .  A
C2811      H2816   1.083       .  S
C2811      C2812   1.414       .  A
C2812      C3210   1.504       .  S
C2812      C2813   1.421       .  A
C2813      C3245   1.488       .  S
C2813      C2814   1.399       .  A
C2814      H2815   1.084       .  S
C2817      C3354   1.492       .  S
C2817      C2818   1.424       .  A
C2817      C2822   1.411       .  A
C2818      C3290   1.495       .  S
C2818      C2819   1.405       .  A
C2819      H2824   1.083       .  S
C2819      C2820   1.404       .  A
C2820      C3194   1.490       .  S
C2820      C2821   1.416       .  A
C2821      C3226   1.497       .  S
C2821      C2822   1.404       .  A
C2822      H2823   1.083       .  S
O2825     Mg2827   2.174       .  S
O2825     Mg2833   2.185       .  S
O2825      C2860   1.235       .  S
C2826      O2839   1.233       .  S
C2826      O2863   1.267       .  A
C2826      H2865   1.081       .  S
Mg2827     O2856   2.164       .  S
Mg2827     O2871   2.285   1_655  S
Mg2827     O2867   2.312       .  S
Mg2827     O2838   2.298       .  S
O2828     Mg2870   2.176       .  S
O2828     Mg2853   2.172       .  S
O2828      C2849   1.236       .  S
O2829      C2860   1.270       .  A
O2829     Mg2853   2.304       .  S
C2830      O2832   1.273       .  A
C2830      O2844   1.268       .  A
C2830      C3165   1.484       .  S
O2831      C2859   1.269       .  A
O2831     Mg2833   2.297       .  S
O2832     Mg2864   2.282       .  S
Mg2833     O2839   2.144       .  S
Mg2833     O2835   2.282       .  S
C2834      O2872   1.267       .  A
C2834      O2840   1.277       .  A
C2834      C3092   1.472       .  S
O2835      C2842   1.270       .  A
H2836      C2849   1.081       .  S
C2837      O2851   1.236       .  S
C2837      O2852   1.271       .  A
C2837      H2862   1.081       .  S
O2838      C2861   1.267       .  A
O2839     Mg2853   2.164       .  S
O2840     Mg4094   2.318       .  S
C2841      O2854   1.271       .  A
C2841      O2846   1.278       .  A
C2841      C4370   1.488   1_545  S
C2842      O2869   1.278       .  A
Mg2843     O2850   2.135       .  S
Mg2843     O2851   2.165       .  S
Mg2843     O2844   2.275       .  S
Mg2843     O2845   2.299       .  S
Mg2843     O4096   2.249   1_545  S
O2845      C2849   1.270       .  A
O2846     Mg2853   2.317       .  S
O2847      C2866   1.269       .  A
O2848      C2868   1.274       .  A
O2848     Mg2864   2.311       .  S
O2850     Mg2864   2.143       .  S
O2850      C2861   1.232       .  S
O2851     Mg2870   2.139       .  S
O2852     Mg2864   2.305       .  S
Mg2853     O2869   2.320       .  S
O2854     Mg2870   2.254       .  S
H2855      C2860   1.081   1_455  S
O2856     Mg2864   2.154       .  S
O2856      C2859   1.234       .  S
H2857      C2859   1.081       .  S
H2858      C2861   1.081       .  S
O2863     Mg2870   2.295       .  S
C2866      C3065   1.462       .  S
O2867      C2868   1.278       .  A
C2868      C3181   1.507       .  S
Mg2870     O4064   2.308   1_545  S
O2872     Mg4067   2.268       .  S
O2873     Mg2875   2.145       .  S
O2873     Mg2881   2.150       .  S
O2873      C2908   1.234       .  S
C2874      O2887   1.234       .  S
C2874      O2911   1.270       .  A
C2874      H2913   1.081       .  S
Mg2875     O2904   2.168       .  S
Mg2875     O2919   2.264       .  S
Mg2875     O2915   2.227       .  S
Mg2875     O2886   2.292       .  S
O2876     Mg2918   2.160       .  S
O2876     Mg2901   2.174       .  S
O2876      C2897   1.235       .  S
O2877      C2908   1.269       .  A
O2877     Mg2901   2.305       .  S
C2878      O2880   1.270       .  A
C2878      O2892   1.280   1_655  A
O2879      C2907   1.269       .  A
O2879     Mg2881   2.301       .  S
O2880     Mg2912   2.247       .  S
Mg2881     O2887   2.146       .  S
Mg2881     O2895   2.259       .  S
Mg2881     O2883   2.300       .  S
C2882      O2920   1.277       .  A
C2882      C3058   1.472       .  S
O2883      C2890   1.271       .  A
H2884      C2897   1.081       .  S
C2885      O2899   1.233       .  S
C2885      O2900   1.268       .  A
C2885      H2910   1.081   1_655  S
O2886      C2909   1.268       .  A
O2887     Mg2901   2.144       .  S
O2888     Mg2918   2.287   1_455  S
C2889      O2902   1.269       .  A
C2889      O2894   1.269       .  A
C2889      C3130   1.497       .  S
C2890      O2917   1.273       .  A
C2890      C3114   1.503       .  S
Mg2891     O2898   2.154       .  S
Mg2891     O2899   2.157       .  S
Mg2891     O2892   2.333   1_655  S
Mg2891     O2893   2.311       .  S
O2893      C2897   1.271       .  A
O2894     Mg2901   2.291       .  S
O2895      C2914   1.269       .  A
O2896      C2916   1.272       .  A
O2896     Mg2912   2.304       .  S
O2898     Mg2912   2.163       .  S
O2898      C2909   1.234       .  S
O2899     Mg2918   2.161       .  S
O2900     Mg2912   2.304       .  S
Mg2901     O2917   2.278       .  S
O2902     Mg2918   2.251       .  S
H2903      C2908   1.081       .  S
O2904     Mg2912   2.151       .  S
O2904      C2907   1.234       .  S
H2905      C2907   1.081       .  S
H2906      C2909   1.081       .  S
O2911     Mg2918   2.305       .  S
C2914      O2919   1.265       .  A
C2914      C3090   1.452       .  S
O2915      C2916   1.266       .  A
C2916      C3098   1.483       .  S
C2921      C3325   1.438       .  S
C2921      C2922   1.416       .  A
C2921      C2926   1.390       .  A
C2922      C3370   1.526       .  S
C2922      C2923   1.414       .  A
C2923      H2928   1.083       .  S
C2923      C2924   1.411       .  A
C2924      C3149   1.485       .  S
C2924      C2925   1.418       .  A
C2925      C3101   1.484       .  S
C2925      C2926   1.392       .  A
C2926      H2927   1.086       .  S
C2929      C3613   1.503       .  S
C2929      C2930   1.420       .  A
C2929      C2934   1.410       .  A
C2930      C3469   1.482       .  S
C2930      C2931   1.397       .  A
C2931      H2936   1.085       .  S
C2932      C3133   1.477   1_455  S
C2932      C2933   1.415       .  A
C2933      C3178   1.497   1_455  S
C2934      H2935   1.081       .  S
C2937      C3629   1.442       .  S
C2937      C2938   1.418       .  A
C2937      C2942   1.396       .  A
C2938      C3437   1.533       .  S
C2938      C2939   1.418       .  A
C2939      H2944   1.082       .  S
C2939      C2940   1.410       .  A
C2940      C3117   1.492       .  S
C2940      C2941   1.413       .  A
C2941      C3277   1.487       .  S
C2941      C2942   1.395       .  A
C2942      H2943   1.083       .  S
C2945      C3485   1.498       .  S
C2945      C2946   1.422       .  A
C2945      C2950   1.416       .  A
C2946      C3421   1.490       .  S
C2946      C2947   1.397       .  A
C2947      H2952   1.085       .  S
C2947      C4172   1.400       .  A
C2948      C3162   1.479       .  S
C2948      C4171   1.399       .  A
C2948      C2949   1.415       .  A
C2949      C3261   1.489       .  S
C2949      C4174   1.407   1_545  A
C2950      H2951   1.084       .  S
C2950      C4173   1.410       .  A
O2953     Mg4179   2.143       .  S
O2953     Mg2961   2.157   1_556  S
O2953      C2988   1.233       .  S
C2954      O2967   1.236       .  S
C2954      O2991   1.271       .  A
C2954      H2993   1.081       .  S
Mg2955     O4177   2.152   1_545  S
Mg2955     O2984   2.168   1_556  S
Mg2955     O2999   2.325   1_556  S
Mg2955     O2995   2.254       .  S
Mg2955     O2966   2.302       .  S
O2956     Mg2998   2.162   1_556  S
O2956     Mg2981   2.165       .  S
O2956      C2977   1.233       .  S
O2957     Mg2981   2.294   1_455  S
C2958      O2960   1.276       .  A
O2959      C4211   1.269       .  A
O2959     Mg2961   2.312       .  S
O2960     Mg2992   2.301       .  S
Mg2961     O2975   2.288       .  S
Mg2961     O2963   2.253       .  S
C2962      O4224   1.271       .  A
C2962      O2968   1.279       .  A
C2962      C3850   1.473       .  S
O2963      C2970   1.266   1_554  A
H2964      C2977   1.081       .  S
C2965      O2979   1.232       .  S
C2965      H2990   1.081       .  S
O2966      C2989   1.270       .  A
O2967     Mg2981   2.188   1_554  S
O2968     Mg2998   2.327   1_556  S
C2969      O2982   1.272       .  A
C2969      O2974   1.274   1_554  A
Mg2971     O2979   2.169   1_556  S
Mg2971     O2972   2.271       .  S
Mg2971     O2973   2.298   1_545  S
Mg2971     O3000   2.280       .  S
O2973      C4201   1.268       .  A
O2974     Mg2981   2.304       .  S
O2975      C2994   1.269       .  A
O2976      C2996   1.272       .  A
O2976     Mg2992   2.287       .  S
C2977      O4197   1.268       .  A
O2978     Mg2992   2.192   1_556  S
O2978      C2989   1.235       .  S
O2979     Mg4222   2.142   1_545  S
O2980     Mg2992   2.280       .  S
Mg2981     O2997   2.285       .  S
O2982     Mg2998   2.264       .  S
H2983      C2988   1.081       .  S
O2984     Mg2992   2.185       .  S
O2984      C2987   1.233       .  S
H2985      C2987   1.081       .  S
H2986      C2989   1.081       .  S
C2987      O4183   1.269       .  A
O2991     Mg2998   2.306       .  S
C2994      O4223   1.278       .  A
O2995      C2996   1.270   1_556  A
Mg2998     O4203   2.140       .  S
O2999      C4218   1.276   1_545  A
O3000      C4186   1.271       .  A
O3001     Mg3003   2.163       .  S
O3001     Mg3009   2.178       .  S
O3001      C3036   1.232       .  S
C3002      O3015   1.234       .  S
C3002      O3039   1.269       .  A
C3002      H3041   1.081       .  S
Mg3003     O3032   2.181       .  S
Mg3003     O3047   2.289       .  S
Mg3003     O3043   2.287       .  S
Mg3003     O3014   2.290       .  S
O3004     Mg3046   2.178       .  S
O3004     Mg3029   2.154       .  S
O3004      C3025   1.232       .  S
O3005      C3036   1.267       .  A
O3005     Mg3029   2.294       .  S
C3006      O3008   1.273       .  A
C3006      O3020   1.273       .  A
O3007      C3035   1.266       .  A
O3007     Mg3009   2.292       .  S
O3008     Mg3040   2.285       .  S
Mg3009     O3015   2.181       .  S
Mg3009     O3023   2.315       .  S
Mg3009     O3011   2.296       .  S
C3010      O3048   1.275       .  A
C3010      O3016   1.270       .  A
O3011      C3018   1.275       .  A
H3012      C3025   1.081       .  S
C3013      O3027   1.233       .  S
C3013      O3028   1.267       .  A
C3013      H3038   1.081       .  S
O3014      C3037   1.267       .  A
O3015     Mg3029   2.195       .  S
O3016     Mg3046   2.283       .  S
C3017      O3030   1.267       .  A
C3017      O3022   1.272       .  A
C3018      O3045   1.272       .  A
Mg3019     O3026   2.159       .  S
Mg3019     O3027   2.177       .  S
Mg3019     O3020   2.285       .  S
Mg3019     O3021   2.295       .  S
Mg3019     O3048   2.297       .  S
O3021      C3025   1.267       .  A
O3022     Mg3029   2.286       .  S
O3023      C3042   1.279       .  A
O3024      C3044   1.272       .  A
O3024     Mg3040   2.279       .  S
O3026     Mg3040   2.191       .  S
O3026      C3037   1.233       .  S
O3027     Mg3046   2.143       .  S
O3028     Mg3040   2.290       .  S
Mg3029     O3045   2.273       .  S
O3030     Mg3046   2.251       .  S
H3031      C3036   1.081       .  S
O3032     Mg3040   2.155       .  S
O3032      C3035   1.232       .  S
H3033      C3035   1.081       .  S
H3034      C3037   1.081       .  S
O3039     Mg3046   2.303       .  S
C3042      O3047   1.273       .  A
O3043      C3044   1.273       .  A
O3049     Mg3051   2.176       .  S
O3049     Mg3057   2.160       .  S
O3049      C3084   1.233       .  S
C3050      O3063   1.234       .  S
C3050      O3087   1.268       .  A
C3050      H3089   1.081       .  S
Mg3051     O3080   2.179       .  S
Mg3051     O3095   2.259       .  S
Mg3051     O3091   2.289       .  S
Mg3051     O3062   2.292       .  S
O3052     Mg3094   2.191       .  S
O3052     Mg3077   2.177       .  S
O3052      C3073   1.235       .  S
O3053      C3084   1.269       .  A
O3053     Mg3077   2.307       .  S
C3054      O3056   1.271       .  A
C3054      O3068   1.277       .  A
O3055      C3083   1.270       .  A
O3055     Mg3057   2.304       .  S
O3056     Mg3088   2.273       .  S
Mg3057     O3063   2.159       .  S
Mg3057     O3071   2.273       .  S
Mg3057     O3059   2.323       .  S
C3058      O3096   1.275       .  A
C3058      O3064   1.271       .  A
O3059      C3066   1.277       .  A
H3060      C3073   1.081       .  S
C3061      O3075   1.233       .  S
C3061      O3076   1.269       .  A
C3061      H3086   1.081       .  S
O3062      C3085   1.268       .  A
O3063     Mg3077   2.169       .  S
O3064     Mg3094   2.297       .  S
C3065      O3078   1.270       .  A
C3065      O3070   1.273       .  A
C3066      O3093   1.276       .  A
Mg3067     O3074   2.166       .  S
Mg3067     O3075   2.159       .  S
Mg3067     O3068   2.308       .  S
Mg3067     O3069   2.307       .  S
Mg3067     O3096   2.302       .  S
O3069      C3073   1.271       .  A
O3070     Mg3077   2.281       .  S
O3071      C3090   1.272       .  A
O3072      C3092   1.273       .  A
O3072     Mg3088   2.297       .  S
O3074     Mg3088   2.182       .  S
O3074      C3085   1.234       .  S
O3075     Mg3094   2.169       .  S
O3076     Mg3088   2.305       .  S
Mg3077     O3093   2.319       .  S
O3078     Mg3094   2.278       .  S
H3079      C3084   1.081       .  S
O3080     Mg3088   2.146       .  S
O3080      C3083   1.235       .  S
H3081      C3083   1.081       .  S
H3082      C3085   1.081       .  S
O3087     Mg3094   2.297       .  S
C3090      O3095   1.266       .  A
O3091      C3092   1.270       .  A
C3097      H3104   1.085       .  S
C3097      C3098   1.408       .  A
C3097      C3102   1.404       .  A
C3098      C3099   1.414       .  A
C3099      C3100   1.408       .  A
C3099      C3106   1.518       .  S
C3100      H3105   1.083       .  S
C3100      C3101   1.409       .  A
C3101      C3102   1.416       .  A
C3102      C3103   1.519       .  S
C3103      F3107   1.383       .  S
C3103      F3108   1.380       .  S
C3103      F3109   1.384       .  S
C3106      F3110   1.384       .  S
C3106      F3111   1.383       .  S
C3106      F3112   1.384       .  S
C3113      H3120   1.079       .  S
C3113      C3114   1.411       .  A
C3113      C3118   1.407       .  A
C3114      C3115   1.428       .  A
C3115      C3116   1.410       .  A
C3115      C3122   1.521       .  S
C3116      H3121   1.082       .  S
C3116      C3117   1.403       .  A
C3117      C3118   1.413       .  A
C3118      C3119   1.521       .  S
C3119      F3123   1.383       .  S
C3119      F3124   1.381       .  S
C3119      F3125   1.383       .  S
C3122      F3126   1.382       .  S
C3122      F3127   1.384       .  S
C3122      F3128   1.385       .  S
C3129      C3130   1.409   1_455  A
C3130      C3131   1.428       .  A
C3131      C3132   1.408       .  A
C3131      C3138   1.520       .  S
C3132      H3137   1.083       .  S
C3132      C3133   1.399       .  A
C3134      C3135   1.516       .  S
C3135      F3139   1.382       .  S
C3135      F3140   1.380       .  S
C3135      F3141   1.384       .  S
C3138      F3142   1.383       .  S
C3138      F3143   1.383       .  S
C3138      F3144   1.385       .  S
C3145      H3152   1.084       .  S
C3145      C3146   1.409       .  A
C3145      C3150   1.406       .  A
C3146      C4065   1.488       .  S
C3146      C3147   1.420       .  A
C3147      C3148   1.406       .  A
C3147      C4378   1.520       .  S
C3148      H3153   1.083       .  S
C3148      C3149   1.404       .  A
C3149      C3150   1.416       .  A
C3150      C3151   1.517       .  S
C3151      F3155   1.384       .  S
C3151      F3156   1.383       .  S
C3151      F3157   1.382       .  S
C3154      C4371   1.520       .  S
C3154      F4382   1.383       .  S
C3154      F3159   1.383   1_565  S
C3154      F3160   1.385       .  S
F3158      C4378   1.383       .  S
C3161      H3168   1.083   1_545  S
C3161      C3162   1.398       .  A
C3161      C3166   1.402       .  A
C3162      C3163   1.418       .  A
C3163      C3164   1.406       .  A
C3163      C3170   1.518       .  S
C3164      H3169   1.085       .  S
C3164      C3165   1.404       .  A
C3165      C3166   1.425       .  A
C3166      C3167   1.523   1_545  S
C3167      F3171   1.385       .  S
C3167      F3172   1.382       .  S
C3167      F3173   1.384       .  S
C3170      F4398   1.383       .  S
C3170      F3175   1.381       .  S
C3170      F3176   1.384       .  S
F3174      C4394   1.382       .  S
C3177      H3184   1.083       .  S
C3177      C3178   1.401       .  A
C3177      C3182   1.412       .  A
C3179      C3186   1.521       .  S
C3180      C3181   1.408   1_455  A
C3181      C3182   1.431       .  A
C3182      C3183   1.524       .  S
C3183      F3187   1.385       .  S
C3183      F3188   1.384       .  S
C3183      F3189   1.383       .  S
C3186      F3190   1.383       .  S
C3186      F3191   1.383       .  S
C3186      F3192   1.381       .  S
C3193      H3200   1.082       .  S
C3193      C3194   1.405       .  A
C3193      C3198   1.406       .  A
C3194      C3195   1.418       .  A
C3195      C3196   1.407       .  A
C3195      C3202   1.522       .  S
C3196      H3201   1.083       .  S
C3196      C3197   1.406       .  A
C3197      C3198   1.418       .  A
C3199      F3203   1.384       .  S
C3199      F3204   1.383   1_455  S
C3199      F3205   1.380       .  S
C3202      F3206   1.381       .  S
C3202      F3207   1.382       .  S
C3202      F3208   1.385       .  S
C3209      H3216   1.083       .  S
C3209      C3210   1.402       .  A
C3209      C3214   1.414       .  A
C3210      C3211   1.419       .  A
C3212      H3217   1.082   1_455  S
C3213      C3214   1.432       .  A
C3214      C3215   1.521       .  S
C3215      F3219   1.385       .  S
C3215      F3220   1.383       .  S
C3215      F3221   1.384       .  S
C3218      F3224   1.385   1_455  S
C3225      H3232   1.079       .  S
C3225      C3226   1.403       .  A
C3225      C3230   1.407       .  A
C3226      C3227   1.415       .  A
C3227      C3228   1.410       .  A
C3227      C3234   1.519       .  S
C3228      H3233   1.079       .  S
C3228      C3229   1.411       .  A
C3229      C4002   1.499       .  S
C3229      C3230   1.423       .  A
C3230      C3231   1.520       .  S
C3231      F3235   1.385       .  S
C3231      F4460   1.383       .  S
C3231      F3237   1.384       .  S
C3234      F3238   1.381       .  S
C3234      F3239   1.382       .  S
C3234      F3240   1.385       .  S
F3236      C4455   1.383       .  S
C3241      H3248   1.083       .  S
C3241      C3242   1.400       .  A
C3241      C3246   1.409       .  A
C3242      C3243   1.420       .  A
C3243      C3244   1.397       .  A
C3243      C3250   1.517       .  S
C3244      H3249   1.081       .  S
C3244      C3245   1.396       .  A
C3245      C3246   1.422       .  A
C3246      C3247   1.515       .  S
C3247      F3251   1.385       .  S
C3247      F3252   1.378       .  S
C3247      F3253   1.383       .  S
C3250      F3254   1.374       .  S
C3250      F3255   1.383       .  S
C3250      F3256   1.385       .  S
C3257      H3264   1.084       .  S
C3257      C3258   1.408   1_565  A
C3257      C3262   1.408       .  A
C3258      C3259   1.426       .  A
C3259      C3260   1.409       .  A
C3259      C3266   1.519       .  S
C3260      H3265   1.083       .  S
C3260      C3261   1.400       .  A
C3261      C3262   1.419   1_545  A
C3262      C3263   1.519       .  S
C3263      F3267   1.383       .  S
C3263      F3268   1.382       .  S
C3263      F4493   1.383       .  S
C3266      F3270   1.380       .  S
C3266      F3271   1.384       .  S
C3266      F3272   1.385       .  S
F3269      C4487   1.383       .  S
C3273      H3280   1.083       .  S
C3273      C3274   1.404       .  A
C3273      C3278   1.401       .  A
C3274      C3275   1.414       .  A
C3275      C3276   1.407       .  A
C3275      C3282   1.518       .  S
C3276      H3281   1.081       .  S
C3276      C3277   1.407       .  A
C3277      C3278   1.416       .  A
C3278      C3279   1.522       .  S
C3279      F3283   1.385       .  S
C3279      F3284   1.382       .  S
C3279      F3285   1.382       .  S
C3282      F3286   1.382       .  S
C3282      F3287   1.384       .  S
C3282      F3288   1.385       .  S
C3289      H3296   1.083       .  S
C3289      C3290   1.403       .  A
C3289      C3294   1.413       .  A
C3290      C3291   1.412       .  A
C3291      C3292   1.410       .  A
C3291      C3298   1.516       .  S
C3292      C3293   1.415       .  A
C3293      C3294   1.428       .  A
C3294      C3295   1.517       .  S
C3295      F3299   1.385       .  S
C3295      F3300   1.383       .  S
C3295      F3301   1.380       .  S
C3298      F3302   1.385       .  S
C3298      F3303   1.383       .  S
C3305      H3312   1.085       .  S
C3305      C3306   1.406       .  A
C3305      C3310   1.407       .  A
C3306      C3307   1.418       .  A
C3307      C3308   1.410       .  A
C3307      C3314   1.517       .  S
C3308      H3313   1.081       .  S
C3308      C3309   1.407       .  A
C3309      C3310   1.420       .  A
C3310      C3311   1.517       .  S
C3311      F3316   1.379       .  S
C3311      F3317   1.383       .  S
C3314      F3318   1.383       .  S
C3314      F3319   1.379       .  S
C3314      F3320   1.384       .  S
C3321      H3328   1.080       .  S
C3321      C3322   1.825       .  A
C3321      C3326   1.829       .  A
C3322      C3323   1.849       .  A
C3323      C3324   1.838       .  A
C3323      C3330   1.494       .  S
C3324      H3329   1.085       .  S
C3324      C3325   1.847       .  A
C3325      C3326   1.846       .  A
C3326      C3327   1.498       .  S
C3327      F3331   1.382       .  S
C3327      F3332   1.381       .  S
C3327      F3333   1.381       .  S
C3330      F3334   1.382       .  S
C3330      F3335   1.382       .  S
C3330      F3336   1.382       .  S
C3337      H3344   1.085       .  S
C3337      C3338   1.406       .  A
C3337      C3342   1.398       .  A
C3338      C3339   1.428       .  A
C3339      C3340   1.411       .  A
C3339      C3346   1.523       .  S
C3340      H3345   1.083       .  S
C3340      C3341   1.403       .  A
C3341      C3342   1.416       .  A
C3342      C3343   1.518       .  S
C3343      F3347   1.384       .  S
C3343      F3348   1.380       .  S
C3343      F3349   1.382       .  S
C3346      F3350   1.384       .  S
C3346      F3351   1.383       .  S
C3346      F3352   1.385       .  S
C3353      H3360   1.081       .  S
C3353      C3354   1.402       .  A
C3353      C3358   1.407       .  A
C3354      C3355   1.425       .  A
C3355      C3356   1.408       .  A
C3355      C3362   1.519       .  S
C3356      H3361   1.085       .  S
C3356      C3357   1.402       .  A
C3357      C3358   1.422       .  A
C3358      C3359   1.520       .  S
C3359      F3363   1.385       .  S
C3359      F3364   1.384       .  S
C3359      F4589   1.382       .  S
C3362      F3366   1.381       .  S
C3362      F3367   1.382       .  S
C3362      F3368   1.384       .  S
F3365      C4583   1.379       .  S
C3369      H3376   1.081       .  S
C3369      C3370   1.411       .  A
C3369      C3374   1.409       .  A
C3370      C3371   1.446       .  A
C3371      C3372   1.410       .  A
C3371      C3378   1.586       .  S
C3372      H3377   1.084       .  S
C3372      C3373   1.389       .  A
C3373      C3374   1.415       .  A
C3374      C3375   1.520       .  S
C3375      F4603   1.385       .  S
C3375      F4604   1.383       .  S
C3375      F3381   1.382       .  S
C3378      F3382   1.416       .  S
C3378      F3383   2.443       .  S
C3378      F3384   1.418       .  S
F3379      C4599   1.385       .  S
F3380      C4599   1.383       .  S
C3385      H3392   1.083       .  S
C3385      C3386   1.409       .  A
C3385      C3390   1.416       .  A
C3386      C3387   1.418       .  A
C3387      C3388   1.410       .  A
C3387      C3394   1.518       .  S
C3388      H3393   1.078       .  S
C3388      C3389   1.406       .  A
C3389      C3390   1.422       .  A
C3390      C3391   1.521       .  S
C3391      F3396   1.381       .  S
C3394      F3398   1.379       .  S
C3394      F3399   1.384       .  S
C3394      F3400   1.384       .  S
C3401      H3408   1.082       .  S
C3401      C3402   1.408       .  A
C3401      C3406   1.402       .  A
C3402      C3403   1.427       .  A
C3403      C3404   1.404       .  A
C3403      C3410   1.523       .  S
C3404      H3409   1.080       .  S
C3404      C3405   1.399       .  A
C3405      C3406   1.417       .  A
C3406      C3407   1.524       .  S
C3407      F3411   1.385       .  S
C3407      F3412   1.380       .  S
C3407      F3413   1.380       .  S
C3410      F3414   1.384       .  S
C3410      F3415   1.383       .  S
C3410      F3416   1.385       .  S
C3417      H3424   1.082       .  S
C3417      C3418   1.411       .  A
C3417      C3422   1.405       .  A
C3418      C3419   1.428       .  A
C3419      C4644   1.411       .  A
C3419      C4650   1.520       .  S
C3420      H3425   1.081       .  S
C3420      C4643   1.403       .  A
C3420      C4645   1.397   1_545  A
C3421      C4644   1.402       .  A
C3421      C3422   1.412       .  A
C3422      C3423   1.517       .  S
C3423      F3427   1.378       .  S
C3423      F3428   1.383       .  S
C3423      F3429   1.385       .  S
C3426      C4643   1.523       .  S
C3426      F3430   1.384       .  S
C3426      F3431   1.383       .  S
C3426      F3432   1.385       .  S
C3433      H3440   1.083       .  S
C3433      C3434   1.391       .  A
C3433      C3438   1.416       .  A
C3434      C3435   1.411       .  A
C3435      C3436   1.407       .  A
C3435      C3442   1.519       .  S
C3436      H3441   1.080       .  S
C3436      C3437   1.413       .  A
C3437      C3438   1.451       .  A
C3438      C3439   1.590       .  S
C3439      F3443   1.418       .  S
C3439      F3444   1.414       .  S
C3439      F3445   2.436       .  S
C3442      F3446   1.383       .  S
C3442      F3447   1.383       .  S
C3442      F3448   1.385       .  S
C3449      H3456   1.084       .  S
C3449      C3450   1.407       .  A
C3449      C3454   1.400       .  A
C3450      C3451   1.429       .  A
C3451      C3452   1.405       .  A
C3451      C3458   1.523       .  S
C3452      H3457   1.079       .  S
C3452      C3453   1.397       .  A
C3453      C3454   1.414       .  A
C3454      C3455   1.520       .  S
C3455      F3459   1.381       .  S
C3455      F3460   1.383       .  S
C3455      F3461   1.381       .  S
C3458      F3462   1.384       .  S
C3458      F3463   1.383       .  S
C3458      F3464   1.385       .  S
C3465      H3472   1.084       .  S
C3465      C3466   1.408       .  A
C3465      C3470   1.401       .  A
C3466      C3467   1.430       .  A
C3467      C3468   1.408       .  A
C3467      C3474   1.522       .  S
C3468      H3473   1.083       .  S
C3468      C3469   1.398       .  A
C3469      C3470   1.416       .  A
C3470      C3471   1.521       .  S
C3471      F3475   1.385       .  S
C3471      F3476   1.381       .  S
C3471      F3477   1.382       .  S
C3474      F3478   1.383       .  S
C3474      F3479   1.383       .  S
C3481      H3488   1.084       .  S
C3481      C3482   1.412       .  A
C3481      C3486   1.409       .  A
C3482      C3483   1.424       .  A
C3483      C3484   1.409       .  A
C3483      C3490   1.520       .  S
C3484      H3489   1.080       .  S
C3484      C3485   1.405       .  A
C3485      C3486   1.421       .  A
C3486      C3487   1.522       .  S
C3487      F3491   1.384       .  S
C3487      F3492   1.383       .  S
C3487      F3493   1.380       .  S
C3490      F3494   1.383       .  S
C3490      F3495   1.384       .  S
C3490      F3496   1.385       .  S
C3497      H3504   1.082       .  S
C3497      C3498   1.407       .  A
C3497      C3502   1.416       .  A
C3498      C3499   1.418       .  A
C3499      C3500   1.416       .  A
C3499      C3506   1.520       .  S
C3500      H3505   1.082       .  S
C3500      C3501   1.411       .  A
C3501      C3502   1.423       .  A
C3503      F3507   1.384       .  S
C3503      F3508   1.381       .  S
C3503      F3509   1.385       .  S
C3506      F3510   1.381       .  S
C3506      F3511   1.381       .  S
C3506      F3512   1.384       .  S
C3513      C3514   1.413       .  A
C3513      C3518   1.412       .  A
C3514      C3515   1.430       .  A
C3515      C3516   1.410       .  A
C3515      C3522   1.519       .  S
C3516      H3521   1.082       .  S
C3516      C3517   1.399       .  A
C3517      C3518   1.414       .  A
C3518      C3519   1.517       .  S
C3519      F3524   1.382   1_655  S
C3519      F3525   1.385   1_655  S
C3522      F3526   1.383       .  S
C3522      F3527   1.383       .  S
C3522      F3528   1.385       .  S
C3529      H4760   1.084       .  S
C3529      C3530   1.407       .  A
C3529      C3534   1.417       .  A
C3530      C3531   1.432       .  A
C3531      C3532   1.411       .  A
C3531      C3538   1.521       .  S
C3532      H3537   1.081       .  S
C3532      C3533   1.399       .  A
C3533      C3534   1.426       .  A
C3534      C3535   1.517       .  S
C3535      F4763   1.383   1_545  S
C3535      F3540   1.378       .  S
C3535      F3541   1.384       .  S
H3536      C4753   1.084       .  S
C3538      F3542   1.378       .  S
C3538      F3543   1.383       .  S
C3538      F3544   1.385       .  S
F3539      C4759   1.383       .  S
C3545      H3552   1.083       .  S
C3545      C3546   1.404       .  A
C3545      C3550   1.416       .  A
C3546      C3547   1.414       .  A
C3547      C3548   1.402       .  A
C3547      C3554   1.516       .  S
C3548      H3553   1.084   1_545  S
C3548      C3549   1.408       .  A
C3549      C3790   1.502   1_545  S
C3549      C3550   1.428       .  A
C3550      C3551   1.521       .  S
C3551      F3555   1.385       .  S
C3551      F3556   1.383       .  S
C3551      F4781   1.384       .  S
C3554      F3558   1.383       .  S
C3554      F3559   1.378       .  S
C3554      F3560   1.379   1_545  S
F3557      C4775   1.383       .  S
C3561      H3568   1.083       .  S
C3561      C3562   1.401       .  A
C3561      C3566   1.404       .  A
C3562      C3563   1.416       .  A
C3563      C3564   1.401       .  A
C3563      C3570   1.518       .  S
C3564      H3569   1.085       .  S
C3564      C3565   1.406       .  A
C3565      C3566   1.420       .  A
C3566      C3567   1.520       .  S
C3567      F3571   1.385       .  S
C3567      F3572   1.382       .  S
C3567      F3573   1.383       .  S
C3570      F3574   1.381       .  S
C3570      F3575   1.382       .  S
C3570      F3576   1.381       .  S
C3577      H3584   1.080       .  S
C3577      C3578   1.403       .  A
C3577      C3582   1.400       .  A
C3578      C3579   1.419       .  A
C3579      C3580   1.405       .  A
C3579      C3586   1.522       .  S
C3580      H3585   1.082       .  S
C3580      C3581   1.407       .  A
C3581      C3582   1.420       .  A
C3582      C3583   1.521       .  S
C3583      F3587   1.384       .  S
C3583      F3588   1.383       .  S
C3583      F3589   1.377       .  S
C3586      F3590   1.381       .  S
C3586      F3591   1.384       .  S
C3586      F3592   1.383       .  S
C3593      H3600   1.083       .  S
C3593      C3594   1.402       .  A
C3593      C4822   1.408   1_545  A
C3594      C3595   1.411       .  A
C3595      C3596   1.399       .  A
C3595      C3602   1.518       .  S
C3596      H3601   1.084       .  S
C3596      C4821   1.412   1_545  A
C3597      C4820   1.414       .  A
C3597      C3598   1.423       .  A
C3598      C4817   1.410       .  A
C3598      C3599   1.518       .  S
C3599      F3603   1.385       .  S
C3599      F3604   1.382       .  S
C3599      F3605   1.384       .  S
C3602      F3606   1.383       .  S
C3602      F3607   1.380       .  S
C3602      F3608   1.384       .  S
C3609      H3616   1.083       .  S
C3609      C3610   1.401       .  A
C3609      C3614   1.415       .  A
C3610      C3611   1.419       .  A
C3611      C3612   1.402       .  A
C3611      C3618   1.522       .  S
C3612      H3617   1.081       .  S
C3612      C3613   1.404       .  A
C3613      C3614   1.426       .  A
C3615      F3621   1.381       .  S
C3618      F3622   1.384       .  S
C3618      F3623   1.379       .  S
C3618      F3624   1.385       .  S
C3625      H3632   1.075       .  S
C3625      C3626   1.830       .  A
C3625      C3630   1.828       .  A
C3626      C3627   1.859       .  A
C3627      C3628   1.845       .  A
C3627      C3634   1.495       .  S
C3628      H3633   1.094       .  S
C3628      C3629   1.849       .  A
C3629      C3630   1.843       .  A
C3630      C3631   1.499       .  S
C3631      F3635   1.382       .  S
C3631      F3636   1.381       .  S
C3631      F3637   1.380       .  S
C3634      F3638   1.383       .  S
C3634      F3639   1.381       .  S
C3634      F3640   1.381       .  S
C3641      H3648   1.083       .  S
C3641      C3642   1.399       .  A
C3641      C3646   1.410       .  A
C3642      C3643   1.415       .  A
C3643      C3644   1.408       .  A
C3643      C3650   1.519       .  S
C3644      H3649   1.084       .  S
C3644      C3645   1.414       .  A
C3645      C3646   1.427       .  A
C3647      F3651   1.384       .  S
C3647      F3652   1.384       .  S
C3647      F3653   1.382       .  S
C3650      F3654   1.383       .  S
C3650      F3655   1.382       .  S
C3650      F3656   1.384       .  S
C3657      H3664   1.080       .  S
C3657      C3658   1.405       .  A
C3657      C3662   1.407       .  A
C3658      C3659   1.426       .  A
C3659      C3660   1.409       .  A
C3659      C3666   1.521       .  S
C3660      H3665   1.084       .  S
C3660      C3661   1.403       .  A
C3661      C3662   1.420       .  A
C3662      C3663   1.520       .  S
C3663      F3667   1.385       .  S
C3663      F3668   1.378       .  S
C3663      F3669   1.383       .  S
C3666      F3670   1.382       .  S
C3666      F3671   1.381       .  S
C3666      F3672   1.384       .  S
O3673     Mg3675   2.157       .  S
O3673     Mg3681   2.140       .  S
O3673      C3708   1.237       .  S
C3674      O3687   1.234       .  S
C3674      O3711   1.270       .  A
C3674      H3713   1.081       .  S
Mg3675     O3704   2.159       .  S
Mg3675     O3719   2.328       .  S
Mg3675     O3715   2.317       .  S
Mg3675     O3686   2.316       .  S
O3676     Mg3718   2.170       .  S
O3676     Mg3701   2.172       .  S
O3676      C3697   1.237       .  S
O3677      C3708   1.273       .  A
O3677     Mg3701   2.318       .  S
C3678      O3680   1.262       .  A
C3678      O3692   1.259       .  A
C3678      C4850   1.460       .  S
O3679      C3707   1.273       .  A
O3679     Mg3681   2.313       .  S
O3680     Mg3712   2.285       .  S
Mg3681     O3687   2.180       .  S
Mg3681     O3683   2.291       .  S
C3682      O3720   1.268       .  A
C3682      O3688   1.278       .  A
C3682      C4266   1.477       .  S
O3683      C3690   1.272       .  A
H3684      C3697   1.081       .  S
C3685      O3699   1.238       .  S
C3685      O3700   1.275       .  A
C3685      H3710   1.081       .  S
O3686      C3709   1.271       .  A
O3687     Mg3701   2.151       .  S
O3688     Mg3718   2.340       .  S
C3689      O3702   1.270       .  A
C3689      O3694   1.275       .  A
C3689      C4885   1.480       .  S
C3690      O3717   1.270       .  A
Mg3691     O3698   2.169       .  S
Mg3691     O3699   2.122       .  S
Mg3691     O3692   2.254       .  S
Mg3691     O3693   2.316       .  S
Mg3691     O3720   2.284       .  S
O3693      C3697   1.274       .  A
O3694     Mg3701   2.312       .  S
O3695      C3714   1.270       .  A
O3696      C3716   1.268       .  A
O3696     Mg3712   2.272       .  S
O3698     Mg3712   2.141       .  S
O3698      C3709   1.235       .  S
O3699     Mg3718   2.119       .  S
O3700     Mg3712   2.324       .  S
Mg3701     O3717   2.293       .  S
O3702     Mg3718   2.247       .  S
H3703      C3708   1.081       .  S
O3704     Mg3712   2.157       .  S
O3704      C3707   1.237       .  S
H3705      C3707   1.081       .  S
H3706      C3709   1.081       .  S
O3711     Mg3718   2.311       .  S
C3714      C4234   1.471       .  S
O3715      C3716   1.276       .  A
C3716      C4834   1.488       .  S
C3721      C4882   1.490       .  S
C3721      C3722   1.423       .  A
C3721      C3726   1.407       .  A
C3722      C4818   1.486       .  S
C3722      C3723   1.399       .  A
C3723      H3728   1.083       .  S
C3723      C3724   1.398       .  A
C3724      C4805   1.478       .  S
C3724      C3725   1.414       .  A
C3725      C4786   1.487       .  S
C3725      C3726   1.396       .  A
C3726      H3727   1.084       .  S
C3729      C4866   1.483       .  S
C3729      C3730   1.408       .  A
C3729      C3734   1.398       .  A
C3730      C4770   1.493       .  S
C3730      C3731   1.411       .  A
C3731      H3736   1.084       .  S
C3731      C3732   1.417       .  A
C3732      C4757   1.504       .  S
C3732      C3733   1.428       .  A
C3733      C4741   1.491       .  S
C3733      C3734   1.405       .  A
C3734      H3735   1.085       .  S
O3737     Mg3739   2.145       .  S
O3737     Mg3745   2.133       .  S
O3737      C3772   1.233       .  S
C3738      O3751   1.235       .  S
C3738      O3775   1.269       .  A
C3738      H3777   1.081       .  S
Mg3739     O3768   2.158       .  S
Mg3739     O3779   2.223       .  S
Mg3739     O3750   2.297       .  S
O3740     Mg3782   2.165       .  S
O3740     Mg3765   2.160       .  S
O3740      C3761   1.236       .  S
O3741      C3772   1.268       .  A
O3741     Mg3765   2.301       .  S
C3742      O3744   1.273       .  A
C3742      O3756   1.280       .  A
O3743      C3771   1.272       .  A
O3743     Mg3745   2.309       .  S
O3744     Mg3776   2.286       .  S
Mg3745     O3751   2.150       .  S
Mg3745     O3747   2.322       .  S
C3746      O3784   1.273       .  A
C3746      C4241   1.457       .  S
O3747      C3754   1.276       .  A
H3748      C3761   1.081       .  S
C3749      O3763   1.234       .  S
C3749      O3764   1.270       .  A
C3749      H3774   1.081       .  S
O3750      C3773   1.270       .  A
O3751     Mg3765   2.159       .  S
O3752     Mg3782   2.290       .  S
C3753      O3766   1.268       .  A
C3753      O3758   1.277       .  A
C3753      C4690   1.504       .  S
C3754      O3781   1.275       .  A
C3754      C4706   1.503       .  S
Mg3755     O3762   2.156       .  S
Mg3755     O3763   2.149       .  S
Mg3755     O3756   2.328       .  S
Mg3755     O3757   2.311       .  S
O3757      C3761   1.272       .  A
O3758     Mg3765   2.311       .  S
O3759      C3778   1.275       .  A
O3760      C3780   1.274       .  A
O3760     Mg3776   2.322       .  S
O3762     Mg3776   2.168       .  S
O3762      C3773   1.236       .  S
O3763     Mg3782   2.173       .  S
O3764     Mg3776   2.307       .  S
Mg3765     O3781   2.280       .  S
O3766     Mg3782   2.262       .  S
H3767      C3772   1.081       .  S
O3768     Mg3776   2.160       .  S
O3768      C3771   1.237       .  S
H3769      C3771   1.081       .  S
H3770      C3773   1.081       .  S
O3775     Mg3782   2.294       .  S
C3778      O3783   1.273       .  A
C3778      C4268   1.471       .  S
O3779      C3780   1.267       .  A
C3780      C4821   1.497       .  S
O3785     Mg3787   2.149       .  S
O3785     Mg3793   2.153       .  S
O3785      C3820   1.234       .  S
C3786      O3799   1.237       .  S
C3786      O3823   1.273       .  A
C3786      H3825   1.081       .  S
Mg3787     O3816   2.146       .  S
Mg3787     O3831   2.295       .  S
Mg3787     O3827   2.227       .  S
Mg3787     O3798   2.309       .  S
O3788     Mg3830   2.147       .  S
O3788     Mg3813   2.152       .  S
O3788      C3809   1.233       .  S
O3789      C3820   1.269       .  A
O3789     Mg3813   2.302       .  S
C3790      O3792   1.271       .  A
C3790      O3804   1.277   1_565  A
O3791      C3819   1.269       .  A
O3791     Mg3793   2.308       .  S
O3792     Mg3824   2.246       .  S
Mg3793     O3799   2.166       .  S
Mg3793     O3807   2.283       .  S
Mg3793     O3795   2.302       .  S
C3794      O3832   1.273       .  A
C3794      C4230   1.459       .  S
O3795      C3802   1.274       .  A
H3796      C3809   1.081       .  S
C3797      O3811   1.234       .  S
C3797      O3812   1.268       .  A
C3797      H3822   1.081   1_565  S
O3798      C3821   1.271       .  A
O3799     Mg3813   2.163       .  S
O3800     Mg3830   2.317   1_545  S
C3801      O3814   1.266       .  A
C3801      O3806   1.274       .  A
C3801      C4642   1.493       .  S
C3802      O3829   1.269       .  A
C3802      C4658   1.471       .  S
Mg3803     O3810   2.158       .  S
Mg3803     O3811   2.164       .  S
Mg3803     O3804   2.335   1_565  S
Mg3803     O3805   2.301       .  S
O3805      C3809   1.268       .  A
O3806     Mg3813   2.302       .  S
O3807      C3826   1.273       .  A
O3808      C3828   1.273       .  A
O3808     Mg3824   2.295       .  S
O3810     Mg3824   2.154       .  S
O3810      C3821   1.236       .  S
O3811     Mg3830   2.152       .  S
O3812     Mg3824   2.298       .  S
Mg3813     O3829   2.255       .  S
O3814     Mg3830   2.239       .  S
H3815      C3820   1.081       .  S
O3816     Mg3824   2.155       .  S
O3816      C3819   1.233       .  S
H3817      C3819   1.081       .  S
H3818      C3821   1.081       .  S
O3823     Mg3830   2.311       .  S
C3826      O3831   1.268       .  A
C3826      C4242   1.465       .  S
O3827      C3828   1.262       .  A
C3828      C4674   1.495       .  S
C3833      C4677   1.473       .  S
C3833      C3834   1.412       .  A
C3833      C3838   1.388       .  A
C3834      C4722   1.502       .  S
C3834      C3835   1.417       .  A
C3835      H3840   1.080       .  S
C3835      C3836   1.420       .  A
C3836      C4613   1.505       .  S
C3836      C3837   1.420       .  A
C3837      C4629   1.479       .  S
C3837      C3838   1.389       .  A
C3838      H3839   1.085       .  S
O3841     Mg3843   2.137   1_554  S
O3841      C3876   1.237       .  S
C3842      O3855   1.234   1_565  S
C3842      O3879   1.269       .  A
C3842      H3881   1.081       .  S
Mg3843     O3854   2.319       .  S
O3844     Mg3869   2.139       .  S
O3844      C3865   1.234       .  S
O3845      C3876   1.271       .  A
O3845     Mg3869   2.303       .  S
C3846      O3848   1.267       .  A
C3846      O3860   1.276       .  A
C3846      C4597   1.478       .  S
O3847      C3875   1.269   1_554  A
O3847     Mg3849   2.300   1_565  S
O3848     Mg3880   2.254       .  S
Mg3849     O3855   2.160       .  S
Mg3849     O3863   2.281       .  S
C3850      O3888   1.274       .  A
C3850      O3856   1.277   1_556  A
O3851      C3858   1.266       .  A
H3852      C3865   1.081       .  S
C3853      O3867   1.236       .  S
C3853      O3868   1.272       .  A
C3853      H3878   1.081       .  S
O3854      C3877   1.272       .  A
C3857      O3870   1.279       .  A
C3857      O3862   1.275       .  A
C3857      C4754   1.508       .  S
C3858      O3885   1.270       .  A
C3858      C4802   1.482       .  S
Mg3859     O3866   2.190       .  S
Mg3859     O3861   2.295       .  S
Mg3859     O3888   2.305       .  S
O3861      C3865   1.268   1_556  A
O3862     Mg3869   2.315       .  S
O3863      C3882   1.269   1_545  A
O3864      C3884   1.272       .  A
O3864     Mg3880   2.297       .  S
O3866      C3877   1.234       .  S
O3867     Mg3886   2.180   1_556  S
O3868     Mg3880   2.310       .  S
Mg3869     O3885   2.243       .  S
H3871      C3876   1.081   1_556  S
O3872     Mg3880   2.157       .  S
O3872      C3875   1.234       .  S
H3873      C3875   1.081       .  S
H3874      C3877   1.081       .  S
O3879     Mg3886   2.299       .  S
C3882      O3887   1.278   1_554  A
C3882      C4218   1.477       .  S
O3883      C3884   1.270       .  A
C3884      C4581   1.481       .  S
O3889     Mg3891   2.131   1_556  S
O3889     Mg3897   2.178       .  S
O3889      C3924   1.235       .  S
C3890      O3903   1.235       .  S
C3890      O3927   1.269       .  A
C3890      H3929   1.081       .  S
Mg3891     O3920   2.147       .  S
Mg3891     O3935   2.302       .  S
Mg3891     O3931   2.235       .  S
Mg3891     O3902   2.318       .  S
O3892     Mg3934   2.150       .  S
O3892     Mg3917   2.112       .  S
O3892      C3913   1.232       .  S
O3893      C3924   1.268       .  A
O3893     Mg3917   2.283       .  S
C3894      O3896   1.268       .  A
C3894      O3908   1.275       .  A
C3894      C4789   1.485       .  S
O3895      C3923   1.265   1_556  A
O3895     Mg3897   2.289       .  S
O3896     Mg3928   2.230       .  S
Mg3897     O3903   2.144       .  S
Mg3897     O3911   2.276       .  S
Mg3897     O3899   2.288       .  S
C3898      O3936   1.275       .  A
C3898      O3904   1.267   1_554  A
C3898      C4220   1.451       .  S
O3899      C3906   1.272       .  A
H3900      C3913   1.081       .  S
C3901      O3915   1.236       .  S
C3901      O3916   1.270       .  A
C3901      H3926   1.081       .  S
O3902      C3925   1.273       .  A
O3903     Mg3917   2.164       .  S
O3904     Mg3934   2.259       .  S
C3905      O3918   1.268       .  A
C3905      O3910   1.271       .  A
C3905      C4562   1.493       .  S
C3906      O3933   1.264       .  A
C3906      C4546   1.447       .  S
Mg3907     O3914   2.159       .  S
Mg3907     O3915   2.170       .  S
Mg3907     O3908   2.316       .  S
Mg3907     O3909   2.287       .  S
Mg3907     O3936   2.277       .  S
O3909      C3913   1.265   1_554  A
O3910     Mg3917   2.267       .  S
O3911      C3930   1.274       .  A
O3912      C3932   1.271       .  A
O3912     Mg3928   2.283       .  S
O3914     Mg3928   2.146       .  S
O3914      C3925   1.236       .  S
O3915     Mg3934   2.149   1_554  S
O3916     Mg3928   2.301       .  S
Mg3917     O3933   2.209       .  S
O3918     Mg3934   2.266       .  S
H3919      C3924   1.081   1_554  S
O3920     Mg3928   2.141       .  S
O3920      C3923   1.231       .  S
H3921      C3923   1.081       .  S
H3922      C3925   1.081       .  S
O3927     Mg3934   2.293       .  S
C3930      O3935   1.272   1_556  A
C3930      C4193   1.465   1_556  S
O3931      C3932   1.264       .  A
C3932      C4626   1.491       .  S
O3937     Mg3939   2.165   1_556  S
O3937      C3972   1.234       .  S
C3938      O3951   1.233       .  S
C3938      O3975   1.267       .  A
C3938      H3977   1.081       .  S
Mg3939     O3950   2.293       .  S
O3940     Mg3965   2.168       .  S
O3940      C3961   1.235       .  S
O3941      C3972   1.269       .  A
O3941     Mg3965   2.305       .  S
C3942      O3944   1.276       .  A
C3942      O3956   1.281       .  A
C3942      C4610   1.501       .  S
O3943      C3971   1.271   1_556  A
O3943     Mg3945   2.301       .  S
O3944     Mg3976   2.299       .  S
Mg3945     O3951   2.154       .  S
Mg3945     O3959   2.286       .  S
C3946      O3984   1.273   1_556  A
C3946      O3952   1.269       .  A
C3946      C4194   1.459       .  S
O3947      C3954   1.281       .  A
H3948      C3961   1.081       .  S
C3949      O3963   1.234       .  S
C3949      O3964   1.269       .  A
C3949      H3974   1.081   1_554  S
O3950      C3973   1.268       .  A
C3953      O3966   1.273       .  A
C3953      O3958   1.280       .  A
C3953      C4517   1.518       .  S
C3954      O3981   1.278       .  A
C3954      C4530   1.500       .  S
Mg3955     O3962   2.145       .  S
Mg3955     O3957   2.301       .  S
Mg3955     O3984   2.266       .  S
O3957      C3961   1.270   1_554  A
O3958     Mg3965   2.356       .  S
O3959      C3978   1.275   1_556  A
O3960      C3980   1.275       .  A
O3960     Mg3976   2.324       .  S
O3962      C3973   1.234       .  S
O3963     Mg3982   2.179   1_554  S
O3964     Mg3976   2.303       .  S
Mg3965     O3981   2.302       .  S
H3967      C3972   1.081   1_554  S
O3968     Mg3976   2.165       .  S
O3968      C3971   1.236       .  S
H3969      C3971   1.081       .  S
H3970      C3973   1.081       .  S
O3975     Mg3982   2.289       .  S
C3978      O3983   1.266   1_655  A
O3979      C3980   1.271       .  A
C3980      C4738   1.509       .  S
O3985     Mg3987   2.147       .  S
O3985     Mg3993   2.179       .  S
O3985      C4020   1.235       .  S
C3986      O3999   1.236       .  S
C3986      O4023   1.272       .  A
C3986      H4025   1.081       .  S
Mg3987     O4016   2.162       .  S
Mg3987     O4031   2.314       .  S
Mg3987     O4027   2.310       .  S
Mg3987     O3998   2.304       .  S
O3988     Mg4030   2.151       .  S
O3988     Mg4013   2.169       .  S
O3988      C4009   1.235       .  S
O3989      C4020   1.268       .  A
O3989     Mg4013   2.288       .  S
C3990      O3992   1.268       .  A
C3990      O4004   1.274       .  A
C3990      C4498   1.479       .  S
O3991      C4019   1.266       .  A
O3991     Mg3993   2.289       .  S
O3992     Mg4024   2.256       .  S
Mg3993     O3999   2.158       .  S
Mg3993     O3995   2.291       .  S
C3994      O4032   1.272       .  A
C3994      O4000   1.279       .  A
C3994      C4290   1.477       .  S
O3995      C4002   1.270       .  A
H3996      C4009   1.081       .  S
C3997      O4011   1.238       .  S
C3997      O4012   1.274       .  A
C3997      H4022   1.081       .  S
O3998      C4021   1.270       .  A
O3999     Mg4013   2.160       .  S
O4000     Mg4030   2.337       .  S
C4001      O4014   1.274       .  A
C4001      O4006   1.269       .  A
C4001      C4466   1.481       .  S
C4002      O4029   1.271       .  A
Mg4003     O4010   2.165       .  S
Mg4003     O4011   2.157       .  S
Mg4003     O4004   2.289       .  S
Mg4003     O4005   2.310       .  S
Mg4003     O4032   2.293       .  S
O4005      C4009   1.271       .  A
O4006     Mg4013   2.273       .  S
O4007      C4026   1.272       .  A
O4008      C4028   1.274       .  A
O4008     Mg4024   2.308       .  S
O4010     Mg4024   2.154       .  S
O4010      C4021   1.235       .  S
O4011     Mg4030   2.160       .  S
O4012     Mg4024   2.316       .  S
Mg4013     O4029   2.280       .  S
O4014     Mg4030   2.296       .  S
H4015      C4020   1.081       .  S
O4016     Mg4024   2.140       .  S
O4016      C4019   1.233       .  S
H4017      C4019   1.081       .  S
H4018      C4021   1.081       .  S
O4023     Mg4030   2.315       .  S
C4026      C4278   1.469       .  S
O4027      C4028   1.278       .  A
C4028      C4482   1.499       .  S
C4033      C4565   1.478       .  S
C4033      C4034   1.412       .  A
C4033      C4038   1.398       .  A
C4034      C4533   1.495       .  S
C4034      C4035   1.412       .  A
C4035      H4040   1.083       .  S
C4035      C4036   1.413       .  A
C4036      C4434   1.499       .  S
C4036      C4037   1.420       .  A
C4037      C4469   1.487       .  S
C4037      C4038   1.398       .  A
C4038      H4039   1.084       .  S
C4041      C4578   1.488       .  S
C4041      C4042   1.426       .  A
C4041      C4046   1.406       .  A
C4042      C4514   1.499       .  S
C4042      C4043   1.409       .  A
C4043      H4048   1.083       .  S
C4043      C4044   1.407       .  A
C4044      C4418   1.492       .  S
C4044      C4045   1.414       .  A
C4045      C4450   1.488       .  S
C4045      C4046   1.397       .  A
C4046      H4047   1.084       .  S
O4049     Mg4051   2.169       .  S
O4049     Mg4057   2.177       .  S
O4049      C4084   1.234       .  S
C4050      O4063   1.233       .  S
C4050      O4087   1.267       .  A
C4050      H4089   1.081       .  S
Mg4051     O4080   2.167       .  S
Mg4051     O4095   2.283   1_655  S
Mg4051     O4091   2.295       .  S
Mg4051     O4062   2.300       .  S
O4052     Mg4094   2.185       .  S
O4052     Mg4077   2.188       .  S
O4052      C4073   1.237       .  S
O4053      C4084   1.269       .  A
O4053     Mg4077   2.304       .  S
C4054      O4056   1.274       .  A
C4054      O4068   1.270       .  A
C4054      C4389   1.489       .  S
O4055      C4083   1.271       .  A
O4055     Mg4057   2.305       .  S
O4056     Mg4088   2.297       .  S
Mg4057     O4063   2.131       .  S
Mg4057     O4059   2.305   1_655  S
C4058      O4096   1.264       .  A
C4058      O4064   1.276       .  A
C4058      C4316   1.463       .  S
O4059      C4066   1.272   1_455  A
H4060      C4073   1.081       .  S
C4061      O4075   1.235       .  S
C4061      O4076   1.271       .  A
C4061      H4086   1.081       .  S
O4062      C4085   1.268       .  A
O4063     Mg4077   2.157       .  S
C4065      O4078   1.272       .  A
C4065      O4070   1.278       .  A
C4066      O4093   1.280       .  A
Mg4067     O4074   2.142       .  S
Mg4067     O4075   2.157       .  S
Mg4067     O4068   2.290       .  S
Mg4067     O4069   2.305       .  S
O4069      C4073   1.272       .  A
O4070     Mg4077   2.310       .  S
O4071      C4090   1.268       .  A
O4072      C4092   1.274       .  A
O4072     Mg4088   2.308       .  S
O4074     Mg4088   2.145       .  S
O4074      C4085   1.234       .  S
O4075     Mg4094   2.147       .  S
O4076     Mg4088   2.306       .  S
Mg4077     O4093   2.336       .  S
O4078     Mg4094   2.263       .  S
H4079      C4084   1.081   1_455  S
O4080     Mg4088   2.167       .  S
O4080      C4083   1.236       .  S
H4081      C4083   1.081       .  S
H4082      C4085   1.081       .  S
O4087     Mg4094   2.291       .  S
C4090      C4289   1.461       .  S
O4091      C4092   1.275       .  A
C4092      C4405   1.496       .  S
O4097     Mg4099   2.161       .  S
O4097     Mg4105   2.173       .  S
O4097      C4132   1.235       .  S
C4098      O4111   1.235       .  S
C4098      O4135   1.270       .  A
C4098      H4137   1.081       .  S
Mg4099     O4128   2.168       .  S
Mg4099     O4143   2.264       .  S
Mg4099     O4139   2.251       .  S
Mg4099     O4110   2.290       .  S
O4100     Mg4142   2.158       .  S
O4100     Mg4125   2.166       .  S
O4100      C4121   1.234       .  S
O4101      C4132   1.271       .  A
O4101     Mg4125   2.309       .  S
C4102      O4104   1.267       .  A
C4102      O4116   1.279   1_655  A
O4103      C4131   1.266       .  A
O4103     Mg4105   2.290       .  S
O4104     Mg4136   2.225       .  S
Mg4105     O4111   2.147       .  S
Mg4105     O4119   2.256       .  S
Mg4105     O4107   2.301       .  S
C4106      O4144   1.273       .  A
C4106      C4282   1.463       .  S
O4107      C4114   1.271       .  A
H4108      C4121   1.081       .  S
C4109      O4123   1.234       .  S
C4109      O4124   1.268       .  A
C4109      H4134   1.081   1_655  S
O4110      C4133   1.266       .  A
O4111     Mg4125   2.141       .  S
O4112     Mg4142   2.291   1_455  S
C4113      O4126   1.270       .  A
C4113      O4118   1.269       .  A
C4113      C4354   1.498       .  S
C4114      O4141   1.272       .  A
C4114      C4338   1.501       .  S
Mg4115     O4122   2.150       .  S
Mg4115     O4123   2.169       .  S
Mg4115     O4116   2.322   1_655  S
Mg4115     O4117   2.305       .  S
O4117      C4121   1.270       .  A
O4118     Mg4125   2.297       .  S
O4119      C4138   1.270       .  A
O4120      C4140   1.273       .  A
O4120     Mg4136   2.308       .  S
O4122     Mg4136   2.162       .  S
O4122      C4133   1.232       .  S
O4123     Mg4142   2.157       .  S
O4124     Mg4136   2.298       .  S
Mg4125     O4141   2.274       .  S
O4126     Mg4142   2.250       .  S
H4127      C4132   1.081       .  S
O4128     Mg4136   2.135       .  S
O4128      C4131   1.233       .  S
H4129      C4131   1.081       .  S
H4130      C4133   1.081       .  S
O4135     Mg4142   2.308       .  S
C4138      O4143   1.266       .  A
C4138      C4314   1.452       .  S
O4139      C4140   1.271       .  A
C4140      C4322   1.492       .  S
C4145      C4549   1.441       .  S
C4145      C4146   1.417       .  A
C4145      C4150   1.394       .  A
C4146      C4594   1.524       .  S
C4146      C4147   1.410       .  A
C4147      H4152   1.083       .  S
C4147      C4148   1.406       .  A
C4148      C4373   1.481       .  S
C4148      C4149   1.416       .  A
C4149      C4325   1.485       .  S
C4149      C4150   1.394       .  A
C4150      H4151   1.085       .  S
C4153      C4837   1.499       .  S
C4153      C4154   1.422       .  A
C4153      C4158   1.412       .  A
C4154      C4693   1.492       .  S
C4154      C4155   1.401       .  A
C4155      H4160   1.085       .  S
C4156      C4357   1.479   1_455  S
C4156      C4157   1.416       .  A
C4157      C4402   1.493   1_455  S
C4158      H4159   1.082       .  S
C4161      C4853   1.442       .  S
C4161      C4162   1.420       .  A
C4161      C4166   1.394       .  A
C4162      C4661   1.532       .  S
C4162      C4163   1.419       .  A
C4163      H4168   1.082       .  S
C4163      C4164   1.409       .  A
C4164      C4341   1.491       .  S
C4164      C4165   1.412       .  A
C4165      C4501   1.482       .  S
C4165      C4166   1.393       .  A
C4166      H4167   1.084       .  S
C4169      C4709   1.489       .  S
C4169      C4170   1.418       .  A
C4169      C4174   1.409       .  A
C4170      C4645   1.484       .  S
C4170      C4171   1.398   1_565  A
C4171      H4176   1.085       .  S
C4172      C4386   1.481       .  S
C4172      C4173   1.415       .  A
C4173      C4485   1.496       .  S
C4174      H4175   1.084       .  S
O4177     Mg4185   2.160   1_556  S
O4177      C4212   1.233       .  S
C4178      O4191   1.236       .  S
C4178      O4215   1.271       .  A
C4178      H4217   1.081       .  S
Mg4179     O4208   2.167   1_556  S
Mg4179     O4223   2.337   1_556  S
Mg4179     O4219   2.244   1_556  S
Mg4179     O4190   2.309       .  S
O4180     Mg4222   2.164   1_556  S
O4180     Mg4205   2.166       .  S
O4180      C4201   1.233       .  S
O4181     Mg4205   2.298   1_455  S
C4182      O4184   1.276       .  A
O4183     Mg4185   2.312   1_545  S
O4184     Mg4216   2.303       .  S
Mg4185     O4199   2.284       .  S
Mg4185     O4187   2.269       .  S
C4186      O4192   1.279   1_545  A
O4187      C4194   1.267   1_554  A
H4188      C4201   1.081       .  S
C4189      O4203   1.232       .  S
C4189      H4214   1.081       .  S
O4190      C4213   1.271       .  A
O4191     Mg4205   2.190   1_554  S
O4192     Mg4222   2.328   1_556  S
C4193      O4206   1.272       .  A
C4193      O4198   1.275   1_554  A
Mg4195     O4203   2.168   1_556  S
Mg4195     O4196   2.263       .  S
Mg4195     O4197   2.297       .  S
Mg4195     O4224   2.279       .  S
O4198     Mg4205   2.312       .  S
O4199      C4218   1.270       .  A
O4200      C4220   1.272       .  A
O4200     Mg4216   2.286       .  S
O4202     Mg4216   2.185   1_556  S
O4202      C4213   1.235       .  S
O4204     Mg4216   2.286       .  S
Mg4205     O4221   2.286       .  S
O4206     Mg4222   2.270       .  S
H4207      C4212   1.081       .  S
O4208     Mg4216   2.187       .  S
O4208      C4211   1.233       .  S
H4209      C4211   1.081       .  S
H4210      C4213   1.081       .  S
O4215     Mg4222   2.308       .  S
O4219      C4220   1.269       .  A
O4225     Mg4227   2.172       .  S
O4225     Mg4233   2.181       .  S
O4225      C4260   1.233       .  S
C4226      O4239   1.234       .  S
C4226      O4263   1.268       .  A
C4226      H4265   1.081       .  S
Mg4227     O4256   2.177       .  S
Mg4227     O4271   2.298       .  S
Mg4227     O4267   2.298       .  S
Mg4227     O4238   2.295       .  S
O4228     Mg4270   2.176       .  S
O4228     Mg4253   2.146       .  S
O4228      C4249   1.233       .  S
O4229      C4260   1.268       .  A
O4229     Mg4253   2.298       .  S
C4230      O4232   1.271       .  A
C4230      O4244   1.273       .  A
O4231      C4259   1.267       .  A
O4231     Mg4233   2.292       .  S
O4232     Mg4264   2.268       .  S
Mg4233     O4239   2.176       .  S
Mg4233     O4247   2.307       .  S
Mg4233     O4235   2.302       .  S
C4234      O4272   1.276       .  A
C4234      O4240   1.269       .  A
O4235      C4242   1.276       .  A
H4236      C4249   1.081       .  S
C4237      O4251   1.233       .  S
C4237      O4252   1.267       .  A
C4237      H4262   1.081       .  S
O4238      C4261   1.268       .  A
O4239     Mg4253   2.192       .  S
O4240     Mg4270   2.280       .  S
C4241      O4254   1.266       .  A
C4241      O4246   1.272       .  A
C4242      O4269   1.270       .  A
Mg4243     O4250   2.169       .  S
Mg4243     O4251   2.165       .  S
Mg4243     O4244   2.281       .  S
Mg4243     O4245   2.295       .  S
Mg4243     O4272   2.303       .  S
O4245      C4249   1.267       .  A
O4246     Mg4253   2.289       .  S
O4247      C4266   1.277       .  A
O4248      C4268   1.274       .  A
O4248     Mg4264   2.295       .  S
O4250     Mg4264   2.189       .  S
O4250      C4261   1.233       .  S
O4251     Mg4270   2.146       .  S
O4252     Mg4264   2.293       .  S
Mg4253     O4269   2.264       .  S
O4254     Mg4270   2.244       .  S
H4255      C4260   1.081       .  S
O4256     Mg4264   2.151       .  S
O4256      C4259   1.232       .  S
H4257      C4259   1.081       .  S
H4258      C4261   1.081       .  S
O4263     Mg4270   2.298       .  S
C4266      O4271   1.274       .  A
O4267      C4268   1.274       .  A
O4273     Mg4275   2.169       .  S
O4273     Mg4281   2.161       .  S
O4273      C4308   1.233       .  S
C4274      O4287   1.234       .  S
C4274      O4311   1.268       .  A
C4274      H4313   1.081       .  S
Mg4275     O4304   2.187       .  S
Mg4275     O4319   2.255       .  S
Mg4275     O4315   2.282       .  S
Mg4275     O4286   2.289       .  S
O4276     Mg4318   2.186       .  S
O4276     Mg4301   2.159       .  S
O4276      C4297   1.234       .  S
O4277      C4308   1.269       .  A
O4277     Mg4301   2.310       .  S
C4278      O4280   1.272       .  A
C4278      O4292   1.278       .  A
O4279      C4307   1.270       .  A
O4279     Mg4281   2.305       .  S
O4280     Mg4312   2.282       .  S
Mg4281     O4287   2.154       .  S
Mg4281     O4295   2.271       .  S
Mg4281     O4283   2.326       .  S
C4282      O4320   1.275       .  A
C4282      O4288   1.269       .  A
O4283      C4290   1.277       .  A
H4284      C4297   1.081       .  S
C4285      O4299   1.232       .  S
C4285      O4300   1.266       .  A
C4285      H4310   1.081       .  S
O4286      C4309   1.267       .  A
O4287     Mg4301   2.161       .  S
O4288     Mg4318   2.274       .  S
C4289      O4302   1.268       .  A
C4289      O4294   1.273       .  A
C4290      O4317   1.274       .  A
Mg4291     O4298   2.152       .  S
Mg4291     O4299   2.166       .  S
Mg4291     O4292   2.310       .  S
Mg4291     O4293   2.301       .  S
Mg4291     O4320   2.291       .  S
O4293      C4297   1.269       .  A
O4294     Mg4301   2.284       .  S
O4295      C4314   1.272       .  A
O4296      C4316   1.270       .  A
O4296     Mg4312   2.268       .  S
O4298     Mg4312   2.184       .  S
O4298      C4309   1.233       .  S
O4299     Mg4318   2.157       .  S
O4300     Mg4312   2.293       .  S
Mg4301     O4317   2.300       .  S
O4302     Mg4318   2.267       .  S
H4303      C4308   1.081       .  S
O4304     Mg4312   2.155       .  S
O4304      C4307   1.235       .  S
H4305      C4307   1.081       .  S
H4306      C4309   1.081       .  S
O4311     Mg4318   2.295       .  S
C4314      O4319   1.266       .  A
O4315      C4316   1.269       .  A
C4321      H4328   1.085       .  S
C4321      C4322   1.409       .  A
C4321      C4326   1.403       .  A
C4322      C4323   1.420       .  A
C4323      C4324   1.411       .  A
C4323      C4330   1.519       .  S
C4324      H4329   1.083       .  S
C4324      C4325   1.408       .  A
C4325      C4326   1.415       .  A
C4326      C4327   1.519       .  S
C4327      F4331   1.383       .  S
C4327      F4332   1.380       .  S
C4327      F4333   1.384       .  S
C4330      F4334   1.385       .  S
C4330      F4335   1.382       .  S
C4330      F4336   1.383       .  S
C4337      H4344   1.080       .  S
C4337      C4338   1.411       .  A
C4337      C4342   1.408       .  A
C4338      C4339   1.426       .  A
C4339      C4340   1.409       .  A
C4339      C4346   1.520       .  S
C4340      H4345   1.082       .  S
C4340      C4341   1.402       .  A
C4341      C4342   1.414       .  A
C4342      C4343   1.521       .  S
C4343      F4347   1.383       .  S
C4343      F4348   1.382       .  S
C4343      F4349   1.383       .  S
C4346      F4350   1.382       .  S
C4346      F4351   1.384       .  S
C4346      F4352   1.385       .  S
C4353      C4354   1.410   1_455  A
C4354      C4355   1.428       .  A
C4355      C4356   1.405       .  A
C4355      C4362   1.519       .  S
C4356      H4361   1.083       .  S
C4356      C4357   1.398       .  A
C4358      C4359   1.518       .  S
C4359      F4363   1.384       .  S
C4359      F4364   1.383       .  S
C4359      F4365   1.378       .  S
C4362      F4366   1.383       .  S
C4362      F4367   1.382       .  S
C4362      F4368   1.385       .  S
C4369      H4376   1.084       .  S
C4369      C4370   1.409       .  A
C4369      C4374   1.405       .  A
C4370      C4371   1.421       .  A
C4371      C4372   1.404       .  A
C4372      H4377   1.083       .  S
C4372      C4373   1.403       .  A
C4373      C4374   1.414       .  A
C4374      C4375   1.518       .  S
C4375      F4379   1.383       .  S
C4375      F4380   1.382       .  S
C4375      F4381   1.384       .  S
C4378      F4383   1.383       .  S
C4378      F4384   1.385       .  S
C4385      H4392   1.083       .  S
C4385      C4386   1.396       .  A
C4385      C4390   1.400       .  A
C4386      C4387   1.418       .  A
C4387      C4388   1.411       .  A
C4387      C4394   1.519       .  S
C4388      H4393   1.084       .  S
C4388      C4389   1.407       .  A
C4389      C4390   1.426       .  A
C4390      C4391   1.522       .  S
C4391      F4395   1.385       .  S
C4391      F4396   1.381       .  S
C4391      F4397   1.383       .  S
C4394      F4399   1.382       .  S
C4394      F4400   1.384       .  S
C4401      H4408   1.082       .  S
C4401      C4402   1.401       .  A
C4401      C4406   1.407       .  A
C4403      C4410   1.517       .  S
C4404      C4405   1.406   1_455  A
C4405      C4406   1.426       .  A
C4406      C4407   1.523       .  S
C4407      F4411   1.385       .  S
C4407      F4412   1.384       .  S
C4407      F4413   1.382       .  S
C4410      F4414   1.384       .  S
C4410      F4415   1.382       .  S
C4410      F4416   1.380       .  S
C4417      H4424   1.080       .  S
C4417      C4418   1.406       .  A
C4417      C4422   1.405       .  A
C4418      C4419   1.418       .  A
C4419      C4420   1.408       .  A
C4419      C4426   1.521       .  S
C4420      H4425   1.083       .  S
C4420      C4421   1.407       .  A
C4421      C4422   1.415       .  A
C4423      F4427   1.385       .  S
C4423      F4428   1.381   1_455  S
C4423      F4429   1.383       .  S
C4426      F4430   1.381       .  S
C4426      F4431   1.382       .  S
C4426      F4432   1.385       .  S
C4433      H4440   1.083       .  S
C4433      C4434   1.402       .  A
C4433      C4438   1.410       .  A
C4434      C4435   1.419       .  A
C4436      H4441   1.082   1_455  S
C4437      C4438   1.429       .  A
C4438      C4439   1.521       .  S
C4439      F4443   1.385       .  S
C4439      F4444   1.382       .  S
C4439      F4445   1.384       .  S
C4442      F4448   1.384   1_455  S
C4449      H4456   1.079       .  S
C4449      C4450   1.401       .  A
C4449      C4454   1.407       .  A
C4450      C4451   1.411       .  A
C4451      C4452   1.404   1_565  A
C4451      C4458   1.520   1_565  S
C4452      H4457   1.076       .  S
C4452      C4453   1.411   1_545  A
C4453      C4454   1.427       .  A
C4454      C4455   1.522       .  S
C4455      F4459   1.385       .  S
C4455      F4461   1.383       .  S
C4458      F4462   1.381       .  S
C4458      F4463   1.382   1_545  S
C4458      F4464   1.385       .  S
C4465      H4472   1.083       .  S
C4465      C4466   1.401       .  A
C4465      C4470   1.409       .  A
C4466      C4467   1.422       .  A
C4467      C4468   1.399       .  A
C4467      C4474   1.518       .  S
C4468      H4473   1.082       .  S
C4468      C4469   1.396       .  A
C4469      C4470   1.421       .  A
C4470      C4471   1.517       .  S
C4471      F4475   1.384       .  S
C4471      F4476   1.379       .  S
C4471      F4477   1.383       .  S
C4474      F4478   1.376       .  S
C4474      F4479   1.383       .  S
C4474      F4480   1.385       .  S
C4481      H4488   1.084       .  S
C4481      C4482   1.406       .  A
C4481      C4486   1.410       .  A
C4482      C4483   1.423       .  A
C4483      C4484   1.412       .  A
C4483      C4490   1.518       .  S
C4484      H4489   1.084       .  S
C4484      C4485   1.403       .  A
C4485      C4486   1.422       .  A
C4486      C4487   1.518       .  S
C4487      F4491   1.383       .  S
C4487      F4492   1.381       .  S
C4490      F4494   1.382       .  S
C4490      F4495   1.384       .  S
C4490      F4496   1.385       .  S
C4497      H4504   1.083       .  S
C4497      C4498   1.404       .  A
C4497      C4502   1.399       .  A
C4498      C4499   1.418       .  A
C4499      C4500   1.409       .  A
C4499      C4506   1.517       .  S
C4500      H4505   1.083       .  S
C4500      C4501   1.405       .  A
C4501      C4502   1.414       .  A
C4502      C4503   1.522       .  S
C4503      F4507   1.385       .  S
C4503      F4508   1.382       .  S
C4503      F4509   1.383       .  S
C4506      F4510   1.382       .  S
C4506      F4511   1.383       .  S
C4506      F4512   1.385       .  S
C4513      H4520   1.083       .  S
C4513      C4514   1.402       .  A
C4513      C4518   1.414       .  A
C4514      C4515   1.412       .  A
C4515      C4516   1.413       .  A
C4515      C4522   1.516       .  S
C4516      C4517   1.417       .  A
C4517      C4518   1.429       .  A
C4518      C4519   1.517       .  S
C4519      F4523   1.385       .  S
C4519      F4524   1.383       .  S
C4519      F4525   1.382       .  S
C4522      F4526   1.384       .  S
C4522      F4527   1.383       .  S
C4529      H4536   1.084       .  S
C4529      C4530   1.409       .  A
C4529      C4534   1.409       .  A
C4530      C4531   1.421       .  A
C4531      C4532   1.412       .  A
C4531      C4538   1.517       .  S
C4532      H4537   1.082       .  S
C4532      C4533   1.405       .  A
C4533      C4534   1.418       .  A
C4534      C4535   1.519       .  S
C4535      F4540   1.380       .  S
C4535      F4541   1.383       .  S
C4538      F4542   1.384       .  S
C4538      F4543   1.378       .  S
C4538      F4544   1.385       .  S
C4545      H4552   1.080       .  S
C4545      C4546   1.828       .  A
C4545      C4550   1.832       .  A
C4546      C4547   1.851       .  A
C4547      C4548   1.837       .  A
C4547      C4554   1.494       .  S
C4548      H4553   1.084       .  S
C4548      C4549   1.846       .  A
C4549      C4550   1.846       .  A
C4550      C4551   1.500       .  S
C4551      F4555   1.382       .  S
C4551      F4556   1.382       .  S
C4551      F4557   1.381       .  S
C4554      F4558   1.382       .  S
C4554      F4559   1.381       .  S
C4554      F4560   1.382       .  S
C4561      H4568   1.085       .  S
C4561      C4562   1.409       .  A
C4561      C4566   1.398       .  A
C4562      C4563   1.426       .  A
C4563      C4564   1.410       .  A
C4563      C4570   1.521       .  S
C4564      H4569   1.082       .  S
C4564      C4565   1.402       .  A
C4565      C4566   1.413       .  A
C4566      C4567   1.520       .  S
C4567      F4571   1.384       .  S
C4567      F4572   1.380       .  S
C4567      F4573   1.382       .  S
C4570      F4574   1.383       .  S
C4570      F4575   1.383       .  S
C4570      F4576   1.385       .  S
C4577      H4584   1.080       .  S
C4577      C4578   1.401       .  A
C4577      C4582   1.404       .  A
C4578      C4579   1.425       .  A
C4579      C4580   1.406       .  A
C4579      C4586   1.520       .  S
C4580      H4585   1.085   1_565  S
C4580      C4581   1.401       .  A
C4581      C4582   1.420       .  A
C4582      C4583   1.520       .  S
C4583      F4587   1.385       .  S
C4583      F4588   1.384       .  S
C4586      F4590   1.381       .  S
C4586      F4591   1.383   1_565  S
C4586      F4592   1.384       .  S
C4593      H4600   1.081       .  S
C4593      C4594   1.410       .  A
C4593      C4598   1.407       .  A
C4594      C4595   1.444       .  A
C4595      C4596   1.412       .  A
C4595      C4602   1.586       .  S
C4596      H4601   1.084       .  S
C4596      C4597   1.391       .  A
C4597      C4598   1.415       .  A
C4598      C4599   1.520       .  S
C4599      F4605   1.381       .  S
C4602      F4606   1.416       .  S
C4602      F4607   2.441       .  S
C4602      F4608   1.418       .  S
C4609      H4616   1.083       .  S
C4609      C4610   1.409       .  A
C4609      C4614   1.415       .  A
C4610      C4611   1.418       .  A
C4611      C4612   1.413       .  A
C4611      C4618   1.517       .  S
C4612      H4617   1.080       .  S
C4612      C4613   1.407       .  A
C4613      C4614   1.420       .  A
C4614      C4615   1.521       .  S
C4615      F4620   1.381       .  S
C4618      F4622   1.380       .  S
C4618      F4623   1.384       .  S
C4618      F4624   1.385       .  S
C4625      H4632   1.082       .  S
C4625      C4626   1.409       .  A
C4625      C4630   1.404       .  A
C4626      C4627   1.428       .  A
C4627      C4628   1.404       .  A
C4627      C4634   1.523       .  S
C4628      H4633   1.081       .  S
C4628      C4629   1.397       .  A
C4629      C4630   1.417       .  A
C4630      C4631   1.525       .  S
C4631      F4635   1.384       .  S
C4631      F4636   1.381       .  S
C4631      F4637   1.382       .  S
C4634      F4638   1.384       .  S
C4634      F4639   1.383       .  S
C4634      F4640   1.385       .  S
C4641      H4648   1.085       .  S
C4641      C4642   1.407       .  A
C4641      C4646   1.407       .  A
C4642      C4643   1.428   1_565  A
C4644      H4649   1.083       .  S
C4645      C4646   1.421       .  A
C4646      C4647   1.522       .  S
C4647      F4651   1.383       .  S
C4647      F4652   1.384       .  S
C4647      F4653   1.379       .  S
C4650      F4654   1.383       .  S
C4650      F4655   1.383       .  S
C4650      F4656   1.385       .  S
C4657      H4664   1.084       .  S
C4657      C4658   1.387       .  A
C4657      C4662   1.413       .  A
C4658      C4659   1.409       .  A
C4659      C4660   1.407       .  A
C4659      C4666   1.518       .  S
C4660      H4665   1.080       .  S
C4660      C4661   1.413       .  A
C4661      C4662   1.450       .  A
C4662      C4663   1.585       .  S
C4663      F4667   1.418       .  S
C4663      F4668   1.414       .  S
C4663      F4669   2.438       .  S
C4666      F4670   1.383       .  S
C4666      F4671   1.383       .  S
C4666      F4672   1.384       .  S
C4673      H4680   1.084       .  S
C4673      C4674   1.410       .  A
C4673      C4678   1.402       .  A
C4674      C4675   1.431       .  A
C4675      C4676   1.404       .  A
C4675      C4682   1.523       .  S
C4676      H4681   1.081       .  S
C4676      C4677   1.396       .  A
C4677      C4678   1.412       .  A
C4678      C4679   1.519       .  S
C4679      F4683   1.382       .  S
C4679      F4684   1.383       .  S
C4679      F4685   1.382       .  S
C4682      F4686   1.383       .  S
C4682      F4687   1.383       .  S
C4682      F4688   1.385       .  S
C4689      H4696   1.084       .  S
C4689      C4690   1.408       .  A
C4689      C4694   1.405       .  A
C4690      C4691   1.431       .  A
C4691      C4692   1.413       .  A
C4691      C4698   1.522       .  S
C4692      H4697   1.083       .  S
C4692      C4693   1.401       .  A
C4693      C4694   1.417       .  A
C4694      C4695   1.520       .  S
C4695      F4699   1.384       .  S
C4695      F4700   1.382       .  S
C4695      F4701   1.382       .  S
C4698      F4702   1.383       .  S
C4698      F4703   1.383       .  S
C4705      H4712   1.084       .  S
C4705      C4706   1.410       .  A
C4705      C4710   1.408       .  A
C4706      C4707   1.429       .  A
C4707      C4708   1.411       .  A
C4707      C4714   1.523   1_565  S
C4708      H4713   1.083   1_565  S
C4708      C4709   1.402       .  A
C4709      C4710   1.415       .  A
C4710      C4711   1.518       .  S
C4711      F4715   1.383       .  S
C4711      F4716   1.382       .  S
C4711      F4717   1.380       .  S
C4714      F4718   1.384       .  S
C4714      F4719   1.384       .  S
C4714      F4720   1.385       .  S
C4721      H4728   1.080       .  S
C4721      C4722   1.408       .  A
C4721      C4726   1.411       .  A
C4722      C4723   1.418       .  A
C4723      C4724   1.413       .  A
C4723      C4730   1.520       .  S
C4724      H4729   1.083       .  S
C4724      C4725   1.409       .  A
C4725      C4726   1.417       .  A
C4727      F4731   1.385       .  S
C4727      F4732   1.377       .  S
C4727      F4733   1.383       .  S
C4730      F4734   1.381       .  S
C4730      F4735   1.382       .  S
C4730      F4736   1.385       .  S
C4737      C4738   1.414       .  A
C4737      C4742   1.411       .  A
C4738      C4739   1.430       .  A
C4739      C4740   1.410       .  A
C4739      C4746   1.520       .  S
C4740      H4745   1.083       .  S
C4740      C4741   1.400       .  A
C4741      C4742   1.412       .  A
C4742      C4743   1.517       .  S
C4743      F4748   1.383       .  S
C4743      F4749   1.385   1_655  S
C4746      F4750   1.383       .  S
C4746      F4751   1.383       .  S
C4746      F4752   1.385       .  S
C4753      C4754   1.407       .  A
C4753      C4758   1.416       .  A
C4754      C4755   1.429       .  A
C4755      C4756   1.410       .  A
C4755      C4762   1.520       .  S
C4756      H4761   1.080       .  S
C4756      C4757   1.401       .  A
C4757      C4758   1.426       .  A
C4758      C4759   1.518       .  S
C4759      F4764   1.378       .  S
C4759      F4765   1.384       .  S
C4762      F4766   1.379       .  S
C4762      F4767   1.383       .  S
C4762      F4768   1.385       .  S
C4769      H4776   1.083       .  S
C4769      C4770   1.402       .  A
C4769      C4774   1.415       .  A
C4770      C4771   1.416       .  A
C4771      C4772   1.409       .  A
C4771      C4778   1.520       .  S
C4772      H4777   1.084       .  S
C4772      C4773   1.413       .  A
C4773      C4774   1.428       .  A
C4774      C4775   1.520       .  S
C4775      F4779   1.385       .  S
C4775      F4780   1.383       .  S
C4778      F4782   1.383       .  S
C4778      F4783   1.380       .  S
C4778      F4784   1.380       .  S
C4785      H4792   1.083       .  S
C4785      C4786   1.403       .  A
C4785      C4790   1.408       .  A
C4786      C4787   1.415       .  A
C4787      C4788   1.402       .  A
C4787      C4794   1.515       .  S
C4788      H4793   1.085       .  S
C4788      C4789   1.406       .  A
C4789      C4790   1.423       .  A
C4790      C4791   1.521       .  S
C4791      F4795   1.385       .  S
C4791      F4796   1.382       .  S
C4791      F4797   1.384       .  S
C4794      F4798   1.382       .  S
C4794      F4799   1.380       .  S
C4794      F4800   1.383       .  S
C4801      H4808   1.078       .  S
C4801      C4802   1.407       .  A
C4801      C4806   1.400       .  A
C4802      C4803   1.421       .  A
C4803      C4804   1.400       .  A
C4803      C4810   1.521       .  S
C4804      H4809   1.082       .  S
C4804      C4805   1.401       .  A
C4805      C4806   1.414       .  A
C4806      C4807   1.523       .  S
C4807      F4811   1.385       .  S
C4807      F4812   1.381       .  S
C4807      F4813   1.379       .  S
C4810      F4814   1.381       .  S
C4810      F4815   1.384       .  S
C4810      F4816   1.383       .  S
C4817      H4824   1.083       .  S
C4817      C4818   1.404       .  A
C4818      C4819   1.410       .  A
C4819      C4820   1.404       .  A
C4819      C4826   1.518       .  S
C4820      H4825   1.082       .  S
C4821      C4822   1.424       .  A
C4822      C4823   1.516       .  S
C4823      F4827   1.385       .  S
C4823      F4828   1.378       .  S
C4823      F4829   1.383       .  S
C4826      F4830   1.378       .  S
C4826      F4831   1.383       .  S
C4826      F4832   1.385       .  S
C4833      H4840   1.083       .  S
C4833      C4834   1.403       .  A
C4833      C4838   1.416       .  A
C4834      C4835   1.421       .  A
C4835      C4836   1.402       .  A
C4835      C4842   1.522       .  S
C4836      H4841   1.082       .  S
C4836      C4837   1.401       .  A
C4837      C4838   1.425       .  A
C4839      F4845   1.381       .  S
C4842      F4846   1.384       .  S
C4842      F4847   1.378       .  S
C4842      F4848   1.385       .  S
C4849      H4856   1.075       .  S
C4849      C4850   1.831       .  A
C4849      C4854   1.831       .  A
C4850      C4851   1.856       .  A
C4851      C4852   1.844       .  A
C4851      C4858   1.494       .  S
C4852      H4857   1.095       .  S
C4852      C4853   1.848       .  A
C4853      C4854   1.842       .  A
C4854      C4855   1.500       .  S
C4855      F4859   1.381       .  S
C4855      F4860   1.382       .  S
C4855      F4861   1.380       .  S
C4858      F4862   1.382       .  S
C4858      F4863   1.382       .  S
C4858      F4864   1.380       .  S
C4865      H4872   1.082       .  S
C4865      C4866   1.398       .  A
C4865      C4870   1.407   1_655  A
C4866      C4867   1.414       .  A
C4867      C4868   1.406       .  A
C4867      C4874   1.520       .  S
C4868      H4873   1.084       .  S
C4868      C4869   1.413       .  A
C4869      C4870   1.427   1_655  A
C4871      F4875   1.385       .  S
C4871      F4876   1.383       .  S
C4871      F4877   1.383       .  S
C4874      F4878   1.383       .  S
C4874      F4879   1.382       .  S
C4874      F4880   1.383       .  S
C4881      H4888   1.080       .  S
C4881      C4882   1.403       .  A
C4881      C4886   1.404       .  A
C4882      C4883   1.424       .  A
C4883      C4884   1.404       .  A
C4883      C4890   1.522       .  S
C4884      H4889   1.085       .  S
C4884      C4885   1.402       .  A
C4885      C4886   1.418       .  A
C4886      C4887   1.520       .  S
C4887      F4891   1.385       .  S
C4887      F4892   1.378       .  S
C4887      F4893   1.384       .  S
C4890      F4894   1.383       .  S
C4890      F4895   1.381       .  S
C4890      F4896   1.384       .  S
