geometry optimzed in LAMMPS
_audit_creation_date              2020-11-30 
_audit_creation_method            'lammps2cif' 
_symmetry_space_group_name_H-M    'P1' 
_symmetry_Int_Tables_number       1 
_symmetry_cell_setting            triclinic 
loop_ 
_symmetry_equiv_pos_as_xyz 
  x,y,z 
_cell_length_a                    27.43061478 
_cell_length_b                    27.644808769802008 
_cell_length_c                    27.165614880525716 
_cell_angle_alpha                 89.83924309091195 
_cell_angle_beta                  90.56015850947836 
_cell_angle_gamma                 89.58613129352766 
loop_ 
_atom_site_label 
_atom_site_type_symbol 
_atom_site_fract_x 
_atom_site_fract_y 
_atom_site_fract_z 
_atom_site_charge 
O1          O  0.46847061  0.34011367  0.05776462    -0.74400
O2          O  0.47259163  0.39824914  0.11739657    -0.53300
C3          C  0.47063152  0.35387941  0.10286181     0.79300
O4          O  0.61242257  0.48276775  0.89941187    -0.59000
O5          O  0.55838523  0.48030467  0.83515189    -0.52100
C6          C  0.60163361  0.48543444  0.85331822     0.71300
O7          O  0.60720236  0.47488555  0.06240229    -0.73600
O8          O  0.54815892  0.47916290  0.12078970    -0.54200
C9          C  0.59311674  0.47913192  0.10716415     0.77300
O10         O  0.47683685  0.33723048  0.89269149    -0.58700
O11         O  0.48380151  0.39418916  0.83202546    -0.51900
C12         C  0.48200943  0.34992282  0.84732406     0.73900
Zr13       Zr  0.47025012  0.37268030  0.97482923     2.54700
O14         O  0.52307969  0.30176790  0.98283492    -0.79300
O15         O  0.39697053  0.32358975  0.97248121    -0.92700
Zr16       Zr  0.57584158  0.46656401  0.97888441     2.64700
O17         O  0.62006696  0.38982800  0.97742402    -0.97700
O18         O  0.65648631  0.50229168  0.98571883    -0.79700
O19         O  0.52217041  0.41955580  0.02637071    -0.83100
O20         O  0.52676150  0.41785076  0.92772931    -2.17800
O21         O  0.34205275  0.47586264  0.88411856    -0.66500
O22         O  0.40433169  0.47599889  0.82863680    -0.51100
C23         C  0.35884156  0.47734608  0.83983645     0.72300
O24         O  0.47749900  0.60791288  0.05484603    -0.59400
O25         O  0.47756157  0.55147628  0.11640120    -0.51400
C26         C  0.47887248  0.59544587  0.10059007     0.74100
O27         O  0.48111454  0.60482077  0.88810052    -0.70800
O28         O  0.48071998  0.54713758  0.82812491    -0.49500
C29         C  0.48145963  0.59154535  0.84263392     0.75500
O30         O  0.33835345  0.48813233  0.05020069    -0.66100
O31         O  0.39365912  0.48484339  0.11363244    -0.53300
C32         C  0.34990963  0.49008982  0.09625162     0.73900
Zr33       Zr  0.37391361  0.47663761  0.96892463     2.77500
O34         O  0.31611264  0.54347397  0.96058463    -0.96900
O35         O  0.31203145  0.41415716  0.97400812    -0.77700
Zr36       Zr  0.47772860  0.57304712  0.97216713     2.70100
O37         O  0.41001969  0.63033369  0.96683569    -0.78900
O38         O  0.53804636  0.63728555  0.97454789    -0.98000
Zr39       Zr  0.47235061  0.47489198  0.07190922     2.21500
Zr40       Zr  0.47980881  0.47173905  0.87621042     2.11100
O41         O  0.42754741  0.52446239  0.92190162    -2.46700
O42         O  0.42376069  0.52619706  0.01958246    -0.78700
O43         O  0.42367410  0.42367190  0.92222257    -0.70900
O44         O  0.52672040  0.52218661  0.02303342    -2.31900
O45         O  0.42027287  0.42527746  0.02164617    -2.28100
O46         O  0.53043187  0.52080692  0.92791852    -0.72700
H47         H  0.54749696  0.39706957  0.90846573     0.79300
H48         H  0.54719774  0.54249705  0.04336232     0.80400
H49         H  0.40857839  0.54498142  0.90013124     0.85300
H50         H  0.39858137  0.40673883  0.04195756     0.80200
H51         H  0.65037110  0.53762531  0.98587343     0.43300
H52         H  0.55984570  0.62879264  0.00257578     0.42200
H53         H  0.41958079  0.65740520  0.98857251     0.41900
H54         H  0.28612796  0.53207854  0.97681272     0.39800
H55         H  0.31482832  0.39603159  0.94277568     0.43000
H56         H  0.40914807  0.28983275  0.97445259     0.37800
H57         H  0.54594169  0.30391999  0.95495934     0.43900
H58         H  0.64894814  0.39522021  0.99880512     0.40300
H59         H  0.32900866  0.56879015  0.98278802     0.45200
H60         H  0.38432073  0.32706378  0.93839039     0.43900
H61         H  0.59970039  0.36719192  0.99642202     0.44100
H62         H  0.55830811  0.63193273  0.94507650     0.44400
C63         C  0.26554307  0.53016181  0.20288286     0.04000
C64         C  0.24194348  0.56916319  0.17909032    -0.12200
C65         C  0.19767372  0.58764662  0.19599286     0.01500
C66         C  0.17806508  0.56922623  0.23946663    -0.10700
C67         C  0.20094043  0.53072816  0.26510596     0.04000
C68         C  0.24553283  0.51183741  0.24703770    -0.10100
H69         H  0.25697363  0.58404472  0.14558234     0.09600
H70         H  0.14352660  0.58355287  0.25212340     0.07100
H71         H  0.26295921  0.48150181  0.26557819     0.06900
C72         C  0.73884877  0.52885128  0.27463518     0.04000
C73         C  0.69291155  0.51236838  0.25815028    -0.12200
C74         C  0.67506491  0.52623055  0.21124452     0.01500
C75         C  0.70211302  0.55882917  0.18268750    -0.10700
C76         C  0.74775082  0.57552149  0.19838703     0.04000
C77         C  0.76560119  0.56052175  0.24459837    -0.10100
H78         H  0.67276710  0.48680740  0.28019843     0.09600
H79         H  0.68774317  0.57039647  0.14722998     0.07100
H80         H  0.80144225  0.57202004  0.25670215     0.06900
C81         C  0.23943408  0.50766218  0.77690040     0.04000
C82         C  0.22586312  0.55135183  0.79910964    -0.12200
C83         C  0.18474508  0.57731141  0.78274758     0.01500
C84         C  0.15857762  0.56020579  0.74188045    -0.10700
C85         C  0.17182701  0.51691234  0.71853348     0.04000
C86         C  0.21254586  0.49035936  0.73615601    -0.10100
H87         H  0.24556754  0.56341995  0.83157930     0.09600
H88         H  0.12535561  0.57868087  0.73035952     0.07100
H89         H  0.22116030  0.45533321  0.72058420     0.06900
C90         C  0.74859984  0.53763760  0.68895308     0.04000
C91         C  0.70394306  0.51861056  0.70538576    -0.12200
C92         C  0.68482674  0.53324844  0.75105370     0.01500
C93         C  0.70933613  0.56891750  0.77833402    -0.10700
C94         C  0.75357191  0.58802356  0.76255516     0.04000
C95         C  0.77234289  0.57320772  0.71730737    -0.10100
H96         H  0.68606052  0.49037646  0.68453075     0.09600
H97         H  0.69477238  0.58071839  0.81329720     0.07100
H98         H  0.80708232  0.58734332  0.70545872     0.06900
N99         N  0.89942747  0.68821568  0.98330220    -0.35800
N100        N  0.96990519  0.69132494  0.06310531    -0.56300
N101        N  0.04260091  0.70060165  0.98650194    -0.35700
N102        N  0.97232905  0.70168354  0.90569715    -0.56300
C103        C  0.87041670  0.69235358  0.02303746     0.27800
C104        C  0.87200533  0.69894550  0.94312197     0.27800
C105        C  0.06923936  0.70904694  0.02756537     0.27800
C106        C  0.07024594  0.71268223  0.94756741     0.27800
C107        C  0.93198372  0.67044381  0.08623833     0.36400
C108        C  0.01057359  0.67766377  0.08815270     0.36500
C109        C  0.93444161  0.68238052  0.88053692     0.36400
C110        C  0.01314893  0.68659372  0.88257570     0.36500
C111        C  0.82435659  0.70777441  0.00813399    -0.21000
C112        C  0.82535465  0.71190594  0.95754286    -0.21000
C113        C  0.11373390  0.72868462  0.01473994    -0.21000
C114        C  0.11435861  0.73101613  0.96405477    -0.21000
C115        C  0.94861013  0.64443793  0.12687778    -0.22100
C116        C  0.99837248  0.64923424  0.12822711    -0.22100
C117        C  0.95107751  0.65615264  0.84061492    -0.22100
C118        C  0.00096111  0.65856017  0.84204878    -0.22100
C119        C  0.88275743  0.67463570  0.07050062    -0.17400
C120        C  0.88520571  0.68643460  0.89466825    -0.17400
C121        C  0.06111927  0.69600705  0.89937267    -0.17400
C122        C  0.05858246  0.68927829  0.07411584    -0.17400
H123        H  0.79263238  0.71266291  0.03102326     0.15500
H124        H  0.79445758  0.72012765  0.93378889     0.15500
H125        H  0.14395498  0.73679394  0.03919841     0.15500
H126        H  0.14519909  0.74107732  0.94178011     0.15500
H127        H  0.92755796  0.62286649  0.15211144     0.13800
H128        H  0.02277210  0.63230135  0.15475988     0.13800
H129        H  0.92976389  0.63538074  0.81458055     0.13800
H130        H  0.02518755  0.63981846  0.81726569     0.13800
H131        H  0.93265287  0.66991200  0.98269539     0.27000
H132        H  0.01237931  0.67821400  0.98476631     0.27000
O133        O  0.04931840  0.49182084  0.33964816    -0.74400
O134        O  0.11238882  0.48849409  0.39519110    -0.53300
C135        C  0.09498136  0.49310129  0.35095243     0.79300
O136        O  0.89422946  0.61663866  0.49158460    -0.59000
O137        O  0.83333125  0.56064334  0.49174433    -0.52100
C138        C  0.84920421  0.60448649  0.49480839     0.71300
O139        O  0.05659354  0.61475059  0.48218303    -0.73600
O140        O  0.11716006  0.55761708  0.48124366    -0.54200
C141        C  0.10174984  0.60192179  0.48286207     0.77300
O142        O  0.88686328  0.48166423  0.34552789    -0.58700
O143        O  0.82916234  0.48830381  0.40533144    -0.51900
C144        C  0.84250549  0.48592619  0.35987244     0.73900
Zr145      Zr  0.96971679  0.48484266  0.37792095     2.54700
O146        O  0.96400534  0.55818956  0.32806288    -0.79300
O147        O  0.96873939  0.43046981  0.30757768    -0.92700
Zr148      Zr  0.97485768  0.58140401  0.48130787     2.64700
O149        O  0.97126382  0.63844245  0.41285006    -0.97700
O150        O  0.97762803  0.64360488  0.54452508    -0.79700
O151        O  0.02131002  0.53322646  0.42723859    -0.83100
O152        O  0.92292836  0.53448268  0.43065804    -2.17800
O153        O  0.89184238  0.34762387  0.47746370    -0.66500
O154        O  0.83183507  0.40474072  0.48581674    -0.51100
C155        C  0.84690307  0.36031820  0.48253829     0.72300
O156        O  0.06309398  0.47954087  0.61354229    -0.59400
O157        O  0.11948640  0.48092814  0.55222924    -0.51400
C158        C  0.10737840  0.48125796  0.59794518     0.74100
O159        O  0.89925714  0.49139821  0.61795953    -0.70800
O160        O  0.83618128  0.49062971  0.56234564    -0.49500
C161        C  0.85373595  0.49473731  0.60635322     0.75500
O162        O  0.05513701  0.34649707  0.48098173    -0.66100
O163        O  0.11603938  0.40246581  0.47904244    -0.53300
C164        C  0.10040643  0.35849935  0.48171754     0.73900
Zr165      Zr  0.97356424  0.38177153  0.47806274     2.77500
O166        O  0.97314184  0.32629494  0.54801817    -0.96900
O167        O  0.97482791  0.31751884  0.41702618    -0.77700
Zr168      Zr  0.97919060  0.47836973  0.58161374     2.70100
O169        O  0.97761527  0.40759928  0.63516608    -0.78900
O170        O  0.98197327  0.53440151  0.65065414    -0.98000
Zr171      Zr  0.07209237  0.48070646  0.47576314     2.21500
Zr172      Zr  0.87633629  0.48257052  0.48279211     2.11100
O173        O  0.92693587  0.43012344  0.53239850    -2.46700
O174        O  0.02543488  0.42919687  0.52815321    -0.78700
O175        O  0.92329090  0.43273228  0.42850726    -0.70900
O176        O  0.02502599  0.53020059  0.53046120    -2.31900
O177        O  0.02024652  0.43143081  0.42482300    -2.28100
O178        O  0.92935964  0.53039746  0.53310285    -0.72700
H179        H  0.90181820  0.55556467  0.41165386     0.79300
H180        H  0.04590819  0.54990833  0.55097236     0.80400
H181        H  0.90710255  0.41029239  0.55343215     0.82600
H182        H  0.03955603  0.41152933  0.40312352     0.80200
H183        H  0.97955576  0.67445072  0.52605885     0.43300
H184        H  0.98962694  0.51389459  0.67969585     0.42200
H185        H  0.95029160  0.41379199  0.65790056     0.41900
H186        H  0.94036968  0.32955242  0.56263889     0.39800
H187        H  0.97639825  0.33467319  0.38504863     0.43000
H188        H  0.99935189  0.41145027  0.31054224     0.37800
H189        H  0.92938581  0.56092264  0.31774318     0.43900
H190        H  0.96329098  0.66992421  0.42819337     0.40300
H191        H  0.97329817  0.29366674  0.53309945     0.45200
H192        H  0.97371820  0.45183800  0.27876422     0.43900
H193        H  0.00543726  0.64177772  0.40201151     0.44100
H194        H  0.01161696  0.55396091  0.64563449     0.44400
C195        C  0.52460958  0.67676317  0.20442121     0.04000
C196        C  0.50874955  0.69735003  0.24903271    -0.12200
C197        C  0.52583238  0.74333565  0.26356101     0.01500
C198        C  0.55990870  0.76739886  0.23369508    -0.10700
C199        C  0.57677549  0.74667719  0.18980648     0.04000
C200        C  0.56014239  0.70065288  0.17680367    -0.10100
H201        H  0.48114447  0.67934473  0.27048102     0.09600
H202        H  0.57172511  0.80334973  0.24382586     0.07100
H203        H  0.57324336  0.68383316  0.14341398     0.06900
C204        C  0.52187614  0.20257233  0.25885571     0.04000
C205        C  0.55160727  0.17554165  0.22698314    -0.12200
C206        C  0.56404412  0.19336632  0.18059214     0.01500
C207        C  0.54814806  0.23981334  0.16700072    -0.10700
C208        C  0.51952478  0.26801616  0.19892815     0.04000
C209        C  0.50701723  0.24957941  0.24535733    -0.10100
H210        H  0.56265439  0.13912492  0.23724714     0.09600
H211        H  0.55693517  0.25368959  0.13081070     0.07100
H212        H  0.48336217  0.27024761  0.26926103     0.06900
C213        C  0.52147146  0.20987434  0.66997967     0.04000
C214        C  0.50438396  0.25388290  0.69059986    -0.12200
C215        C  0.51970969  0.26762975  0.73859975     0.01500
C216        C  0.55285892  0.23752013  0.76429496    -0.10700
C217        C  0.56985118  0.19428539  0.74395812     0.04000
C218        C  0.55606398  0.18204667  0.69623271    -0.10100
H219        H  0.47732635  0.27542250  0.67102062     0.09600
H220        H  0.56447541  0.24680435  0.80131420     0.07100
H221        H  0.56877841  0.14797356  0.68115912     0.06900
C222        C  0.51601456  0.67405158  0.73446695     0.04000
C223        C  0.49848149  0.69656343  0.69057676    -0.12200
C224        C  0.51804534  0.74165525  0.67518473     0.01500
C225        C  0.55577045  0.76243070  0.70358105    -0.10700
C226        C  0.57315186  0.74023752  0.74666770     0.04000
C227        C  0.55474497  0.69545329  0.76029199    -0.10100
H228        H  0.46852121  0.68064471  0.67021886     0.09600
H229        H  0.57070635  0.79708530  0.69311935     0.07100
H230        H  0.56915361  0.67816263  0.79329651     0.06900
N231        N  0.66338058  0.96565528  0.03818768    -0.35800
N232        N  0.65797891  0.03511477  0.95883061    -0.56300
N233        N  0.67055649  0.96076889  0.88373376    -0.35700
N234        N  0.67536738  0.89118203  0.96400390    -0.56300
C235        C  0.64084138  0.00358717  0.06013268     0.27800
C236        C  0.65037129  0.92524275  0.06292505     0.27800
C237        C  0.65167088  0.99791188  0.85698549     0.27800
C238        C  0.65840374  0.91940780  0.86019739     0.27800
C239        C  0.65874786  0.06560563  0.99762369     0.36400
C240        C  0.66446429  0.06270961  0.91840996     0.36500
C241        C  0.68428335  0.86488414  0.00513202     0.36400
C242        C  0.68562160  0.86224488  0.92544092     0.36500
C243        C  0.61385013  0.98728227  0.09955627    -0.21000
C244        C  0.61950517  0.93788619  0.10111998    -0.21000
C245        C  0.62885331  0.98024403  0.81509646    -0.21000
C246        C  0.63268721  0.93072396  0.81729108    -0.21000
C247        C  0.66727278  0.11248799  0.98200009    -0.22100
C248        C  0.67095644  0.11065457  0.93175116    -0.22100
C249        C  0.70267303  0.81969998  0.99264617    -0.22100
C250        C  0.70313435  0.81790591  0.94205521    -0.22100
C251        C  0.64417146  0.05254420  0.04541132    -0.17400
C252        C  0.66571274  0.87738594  0.05183789    -0.17400
C253        C  0.66946439  0.87189618  0.87688970    -0.17400
C254        C  0.65349809  0.04721764  0.87018640    -0.17400
H255        H  0.59131538  0.00857216  0.12390998     0.15500
H256        H  0.60176528  0.91411203  0.12693751     0.15500
H257        H  0.60993035  0.00072188  0.78667879     0.15500
H258        H  0.61695546  0.90613891  0.79074422     0.15500
H259        H  0.66812040  0.14493391  0.00418413     0.13800
H260        H  0.67466224  0.14150139  0.90746651     0.13800
H261        H  0.71120753  0.78991572  0.01728942     0.13800
H262        H  0.71216518  0.78658261  0.92001483     0.13800
H263        H  0.68892946  0.96757428  0.01010585     0.27000
H264        H  0.69237036  0.96376323  0.91517591     0.27000
C265        C  0.20477845  0.68947591  0.51963883     0.04000
C266        C  0.17690494  0.72031665  0.54985768    -0.12200
C267        C  0.19307744  0.76663602  0.56212567     0.01500
C268        C  0.23867284  0.78162935  0.54581341    -0.10700
C269        C  0.26774366  0.75192510  0.51583055     0.04000
C270        C  0.25115725  0.70501555  0.50374520    -0.10100
H271        H  0.14127281  0.70899391  0.56214281     0.09600
H272        H  0.25125119  0.81741166  0.55580563     0.07100
H273        H  0.27269448  0.68210452  0.47993906     0.06900
C274        C  0.67772603  0.21071886  0.51221905     0.04000
C275        C  0.70252762  0.18543380  0.54977458    -0.12200
C276        C  0.74715440  0.20133813  0.56854355     0.01500
C277        C  0.76584021  0.24546582  0.55211926    -0.10700
C278        C  0.74122126  0.27326889  0.51587494     0.04000
C279        C  0.69633075  0.25593136  0.49639404    -0.10100
H280        H  0.68792802  0.15153093  0.56310168     0.09600
H281        H  0.80075279  0.25742106  0.56638095     0.07100
H282        H  0.67762375  0.27598655  0.46750510     0.06900
C283        C  0.26931532  0.20830966  0.51264791     0.04000
C284        C  0.25158567  0.25482335  0.49909006    -0.12200
C285        C  0.20664412  0.27203042  0.51790068     0.01500
C286        C  0.18164681  0.24347937  0.55236717    -0.10700
C287        C  0.19864331  0.19747633  0.56580737     0.04000
C288        C  0.24278229  0.18076972  0.54667632    -0.10100
H289        H  0.27094075  0.27604433  0.47211859     0.09600
H290        H  0.14707196  0.25604698  0.56669141     0.07100
H291        H  0.25602366  0.14522895  0.55753991     0.06900
C292        C  0.74284521  0.68885570  0.53317917     0.04000
C293        C  0.76696201  0.71957722  0.56688684    -0.12200
C294        C  0.74709960  0.76468118  0.57954906     0.01500
C295        C  0.70164902  0.77802252  0.56016519    -0.10700
C296        C  0.67724189  0.74902324  0.52568224     0.04000
C297        C  0.69716988  0.70345507  0.51330865    -0.10100
H298        H  0.80253177  0.70939976  0.58138236     0.09600
H299        H  0.68609947  0.81278273  0.57012062     0.07100
H300        H  0.67905132  0.68113923  0.48611367     0.06900
N301        N  0.96931493  0.91117754  0.66686683    -0.35800
N302        N  0.89745696  0.98736293  0.67670538    -0.56300
N303        N  0.97143853  0.06300451  0.67410511    -0.35700
N304        N  0.04292939  0.98572819  0.66493050    -0.56300
C305        C  0.92818644  0.88840368  0.65222530     0.27800
C306        C  0.00721038  0.88765653  0.64585470     0.27800
C307        C  0.93085696  0.08777640  0.66000925     0.27800
C308        C  0.01021277  0.08688912  0.65557913     0.27800
C309        C  0.86825164  0.94858165  0.68222382     0.36400
C310        C  0.86957554  0.02688103  0.68506854     0.36500
C311        C  0.07151622  0.94586342  0.66794288     0.36400
C312        C  0.07247628  0.02388180  0.67235374     0.36500
C313        C  0.94022422  0.84958835  0.62228222    -0.21000
C314        C  0.99009205  0.84913190  0.61828548    -0.21000
C315        C  0.94425392  0.12856746  0.63354047    -0.21000
C316        C  0.99421874  0.12805947  0.63090698    -0.21000
C317        C  0.82208131  0.96336380  0.69632441    -0.22100
C318        C  0.82291759  0.01301947  0.69815674    -0.22100
C319        C  0.11908904  0.95853610  0.67919238    -0.22100
C320        C  0.11968414  0.00810268  0.68211890    -0.22100
C321        C  0.88010056  0.90183576  0.66502679    -0.17400
C322        C  0.05683925  0.89994043  0.65141214    -0.17400
C323        C  0.05949888  0.07167554  0.65936225    -0.17400
C324        C  0.88209556  0.07389361  0.66925932    -0.17400
H325        H  0.91565558  0.82466241  0.60425496     0.15500
H326        H  0.01119843  0.82377451  0.59677594     0.15500
H327        H  0.92066224  0.15532925  0.61634836     0.15500
H328        H  0.01600333  0.15424468  0.61145691     0.15500
H329        H  0.79025593  0.94096877  0.70113568     0.13800
H330        H  0.79176466  0.03640133  0.70441369     0.13800
H331        H  0.15052219  0.93475229  0.68192199     0.13800
H332        H  0.15173439  0.03020108  0.68730984     0.13800
H333        H  0.97165920  0.93906068  0.69250196     0.27000
H334        H  0.97273339  0.03254436  0.69678055     0.27000
O335        O  0.34094513  0.89682078  0.47016860    -0.74400
O336        O  0.39834319  0.83654566  0.47227498    -0.53300
C337        C  0.35380453  0.85200379  0.47253273     0.79300
O338        O  0.47526744  0.05564776  0.32808376    -0.59000
O339        O  0.47885825  0.11567274  0.38572277    -0.52100
C340        C  0.47848981  0.10021386  0.34099625     0.71300
O341        O  0.47761329  0.89406759  0.33025168    -0.73600
O342        O  0.48159980  0.83555351  0.38972380    -0.54200
C343        C  0.48206844  0.84975243  0.34432791     0.77300
O344        O  0.34037369  0.05984190  0.46915305    -0.58700
O345        O  0.39791171  0.11915960  0.46876007    -0.51900
C346        C  0.35329679  0.10452734  0.47021698     0.73900
Zr347      Zr  0.37449708  0.97812431  0.46812574     2.54700
O348        O  0.30958855  0.97812772  0.40637169    -0.79300
O349        O  0.31501438  0.98148166  0.53404183    -0.92700
Zr350      Zr  0.47124895  0.97539980  0.36419178     2.64700
O351        O  0.39928819  0.97444574  0.31102231    -0.97700
O352        O  0.52481616  0.97496032  0.29318651    -0.79700
O353        O  0.42174336  0.92779477  0.41596691    -0.83100
O354        O  0.42225010  0.02558147  0.41449087    -2.17800
O355        O  0.47925974  0.06148441  0.60012080    -0.66500
O356        O  0.47977647  0.12048791  0.54112950    -0.51100
C357        C  0.48058236  0.10612572  0.58631020     0.72300
O358        O  0.60978159  0.89505435  0.47020230    -0.59400
O359        O  0.55225967  0.83578875  0.47364453    -0.51400
C360        C  0.59670825  0.85050171  0.47410968     0.74100
O361        O  0.61064023  0.05925096  0.46708764    -0.70800
O362        O  0.55247349  0.11878091  0.46855471    -0.49500
C363        C  0.59724093  0.10404860  0.46963647     0.75500
O364        O  0.48618409  0.89718968  0.60311713    -0.66100
O365        O  0.48216762  0.83670936  0.54617846    -0.53300
C366        C  0.48662832  0.85217097  0.59078758     0.73900
Zr367      Zr  0.47867043  0.97869164  0.56820403     2.77500
O368        O  0.54388322  0.97929003  0.62981346    -0.96900
O369        O  0.41574968  0.97871551  0.63072953    -0.77700
Zr370      Zr  0.57673088  0.97734815  0.46331750     2.70100
O371        O  0.64243114  0.97648464  0.52420651    -0.78900
O372        O  0.63379725  0.97701998  0.39512930    -0.98000
Zr373      Zr  0.47560700  0.88075564  0.46765445     2.21500
Zr374      Zr  0.47552454  0.07384294  0.46482912     2.11100
O375        O  0.52839323  0.02550437  0.51605403    -2.46700
O376        O  0.52811933  0.93043314  0.51669561    -0.78700
O377        O  0.42581194  0.02643425  0.51825441    -0.70900
O378        O  0.52526458  0.92854541  0.41402489    -2.31900
O379        O  0.42582260  0.93024493  0.51997213    -2.28100
O380        O  0.52463668  0.02444655  0.41192518    -0.72700
H381        H  0.40147131  0.04581613  0.39411847     0.79300
H382        H  0.54564355  0.90816267  0.39385632     0.80400
H383        H  0.54925965  0.04548780  0.53631190     0.82600
H384        H  0.40646772  0.91045590  0.54147216     0.80200
H385        H  0.55200545  0.95292865  0.30249534     0.43300
H386        H  0.66143023  0.95661344  0.40673879     0.42200
H387        H  0.67265086  0.97503457  0.50461054     0.41900
H388        H  0.57083307  0.96089613  0.61447416     0.39800
H389        H  0.43036887  0.96052979  0.65871134     0.43000
H390        H  0.33084546  0.96435251  0.56203364     0.37800
H391        H  0.32658990  0.97912043  0.37445804     0.43900
H392        H  0.41216367  0.97865766  0.27737234     0.40300
H393        H  0.55564606  0.01304498  0.63074982     0.45200
H394        H  0.28836726  0.95982857  0.52333796     0.43900
H395        H  0.38795888  0.94053180  0.31197778     0.44100
H396        H  0.61780161  0.95754281  0.36917049     0.44400
C397        C  0.63373411  0.77048542  0.50029254    -0.15600
C398        C  0.63739289  0.81583605  0.48210604    -0.30800
H399        H  0.59872534  0.75260873  0.50269013     0.13400
H400        H  0.67363830  0.83143233  0.47994794     0.14000
C401        C  0.77899308  0.84863779  0.58825909    -0.12500
C402        C  0.77648912  0.80108369  0.60665553     0.09700
C403        C  0.80458429  0.78849191  0.64838286    -0.12500
C404        C  0.83608036  0.82231391  0.66989743    -0.12500
C405        C  0.83997670  0.86903786  0.64983652     0.09700
C406        C  0.81037546  0.88217717  0.60959366    -0.12500
H407        H  0.75850066  0.85927365  0.55565893     0.13600
H408        H  0.80308764  0.75224276  0.66348311     0.13600
H409        H  0.85903721  0.81146982  0.70071398     0.13600
H410        H  0.81354362  0.91769822  0.59301544     0.13600
C411        C  0.31185023  0.13907171  0.47567067    -0.15600
C412        C  0.31390154  0.18564991  0.49062251    -0.30800
H413        H  0.27599288  0.12254479  0.47363715     0.13400
H414        H  0.34834502  0.20469866  0.49203770     0.14000
C415        C  0.15876927  0.11736279  0.57591129    -0.12500
C416        C  0.16686072  0.16424898  0.59383934     0.09700
C417        C  0.14111464  0.17997096  0.63547524    -0.12500
C418        C  0.10719057  0.14958175  0.65804979    -0.12500
C419        C  0.09826137  0.10326934  0.63900352     0.09700
C420        C  0.12466817  0.08740172  0.59800554    -0.12500
H421        H  0.17727873  0.10458580  0.54334207     0.13600
H422        H  0.14672267  0.21596208  0.65000027     0.13600
H423        H  0.08710613  0.16249389  0.68957944     0.13600
H424        H  0.11786660  0.05210058  0.58224148     0.13600
C425        C  0.63448706  0.18638954  0.48897533    -0.15600
C426        C  0.63790953  0.13876768  0.47742725    -0.30800
H427        H  0.59988722  0.20554367  0.48618456     0.13400
H428        H  0.67395729  0.12212232  0.47923868     0.14000
C429        C  0.78191854  0.11951833  0.58534521    -0.12500
C430        C  0.77720946  0.16815035  0.59950206     0.09700
C431        C  0.80388223  0.18470669  0.64053119    -0.12500
C432        C  0.83591100  0.15338063  0.66582055    -0.12500
C433        C  0.84216705  0.10545614  0.64977995     0.09700
C434        C  0.81413504  0.08867513  0.61001072    -0.12500
H435        H  0.76254232  0.10586393  0.55341307     0.13600
H436        H  0.80071642  0.22198818  0.65226366     0.13600
H437        H  0.85747605  0.16700337  0.69630134     0.13600
H438        H  0.81894538  0.05212112  0.59650596     0.13600
C439        C  0.31366463  0.77284370  0.49576274    -0.15600
C440        C  0.31227522  0.81839908  0.47769950    -0.30800
H441        H  0.34801795  0.75359643  0.50059860     0.13400
H442        H  0.27656574  0.83518649  0.47253334     0.14000
C443        C  0.15320395  0.84795474  0.56781312    -0.12500
C444        C  0.16037129  0.80133429  0.58749789     0.09700
C445        C  0.13462951  0.78785601  0.62983075    -0.12500
C446        C  0.10195982  0.82032292  0.65172350    -0.12500
C447        C  0.09442859  0.86656066  0.63141647     0.09700
C448        C  0.12048301  0.88017171  0.58947800    -0.12500
H449        H  0.17191140  0.85898135  0.53473487     0.13600
H450        H  0.13964200  0.75218320  0.64573845     0.13600
H451        H  0.08193575  0.80920340  0.68394852     0.13600
H452        H  0.11455592  0.91542633  0.57285376     0.13600
C453        C  0.49492749  0.81799527  0.63262571    -0.15600
C454        C  0.49900832  0.76911525  0.63097161    -0.30800
H455        H  0.50054389  0.83544793  0.66801902     0.13400
H456        H  0.49061785  0.74977633  0.59724926     0.14000
C457        C  0.64479407  0.79375789  0.76518137    -0.12500
C458        C  0.60473888  0.76698908  0.78157234     0.09700
C459        C  0.59150945  0.76966547  0.83137191    -0.12500
C460        C  0.61537357  0.80123619  0.86319763    -0.12500
C461        C  0.65321772  0.83050722  0.84605169     0.09700
C462        C  0.66924490  0.82495623  0.79739453    -0.12500
H463        H  0.65591815  0.79190655  0.72708931     0.13600
H464        H  0.56048011  0.74981494  0.84497329     0.13600
H465        H  0.60210932  0.80519013  0.90042417     0.13600
H466        H  0.69841651  0.84722516  0.78354409     0.13600
C467        C  0.50010121  0.18765776  0.62457513    -0.15600
C468        C  0.48544482  0.14110073  0.62732260    -0.30800
H469        H  0.50226078  0.20639317  0.58950373     0.13400
H470        H  0.48317806  0.12494917  0.66381539     0.14000
C471        C  0.63576823  0.13247678  0.76136570    -0.12500
C472        C  0.59339669  0.15744694  0.77576004     0.09700
C473        C  0.57027637  0.14432057  0.81954768    -0.12500
C474        C  0.58949859  0.10768066  0.84906318    -0.12500
C475        C  0.63271528  0.08388325  0.83589372     0.09700
C476        C  0.65559914  0.09597496  0.79157234    -0.12500
H477        H  0.65353202  0.14150056  0.72714631     0.13600
H478        H  0.53668396  0.16191734  0.83049789     0.13600
H479        H  0.57092324  0.09810241  0.88269691     0.13600
H480        H  0.68874620  0.07751972  0.78074123     0.13600
C481        C  0.50318230  0.17882214  0.30377391    -0.15600
C482        C  0.48424826  0.13427762  0.29982718    -0.30800
H483        H  0.50847131  0.19576506  0.33942101     0.13400
H484        H  0.47869596  0.11933438  0.26318027     0.14000
C485        C  0.62823785  0.13184448  0.15848556    -0.12500
C486        C  0.58810138  0.16091898  0.14453890     0.09700
C487        C  0.56795270  0.15547571  0.09714086    -0.12500
C488        C  0.58654008  0.12073065  0.06493329    -0.12500
C489        C  0.62612403  0.09112829  0.07914459     0.09700
C490        C  0.64717040  0.09736172  0.12600449    -0.12500
H491        H  0.64445450  0.13535432  0.19479592     0.13600
H492        H  0.53647744  0.17673242  0.08573224     0.13600
H493        H  0.56936669  0.11618615  0.02918468     0.13600
H494        H  0.67773787  0.07496011  0.13764904     0.13600
C495        C  0.50606762  0.76878131  0.30772703    -0.15600
C496        C  0.49094537  0.81517011  0.30352497    -0.30800
H497        H  0.50654094  0.75066636  0.34324015     0.13400
H498        H  0.48955475  0.83087641  0.26675853     0.14000
C499        C  0.64135651  0.80885620  0.17042466    -0.12500
C500        C  0.60644923  0.77515537  0.15430731     0.09700
C501        C  0.59697492  0.77135945  0.10340923    -0.12500
C502        C  0.61923452  0.80226443  0.06999991    -0.12500
C503        C  0.65173289  0.83782636  0.08634997     0.09700
C504        C  0.66408302  0.83964670  0.13668281    -0.12500
H505        H  0.65010326  0.81236373  0.20918426     0.13600
H506        H  0.56980586  0.74666958  0.08932959     0.13600
H507        H  0.60849331  0.80046688  0.03156957     0.13600
H508        H  0.68905740  0.86686655  0.15013438     0.13600
C509        C  0.76496915  0.31889930  0.49792616    -0.15600
C510        C  0.81316312  0.31840796  0.48766861    -0.30800
H511        H  0.74424950  0.35247981  0.49676620     0.13400
H512        H  0.83117775  0.28321206  0.48707126     0.14000
C513        C  0.76817796  0.64392910  0.51595322    -0.15600
C514        C  0.81579870  0.64583493  0.50426863    -0.30800
H515        H  0.74844402  0.61008694  0.51383376     0.13400
H516        H  0.83313947  0.68110894  0.50458888     0.14000
C517        C  0.13438769  0.31670022  0.48801919    -0.15600
C518        C  0.18241042  0.31761117  0.49970009    -0.30800
H519        H  0.11677609  0.28154941  0.48751812     0.13400
H520        H  0.20256098  0.35124452  0.49894525     0.14000
C521        C  0.13556443  0.64343989  0.48726044    -0.15600
C522        C  0.18247785  0.64293466  0.50276278    -0.30800
H523        H  0.11808179  0.67865026  0.48261841     0.13400
H524        H  0.20263858  0.60917873  0.50655283     0.14000
C525        C  0.77360298  0.51762595  0.64492102    -0.15600
C526        C  0.82140528  0.50627613  0.64801312    -0.30800
H527        H  0.75349443  0.51330530  0.61060828     0.13400
H528        H  0.83939880  0.50895778  0.68376252     0.14000
C529        C  0.79048120  0.60078622  0.84547577    -0.12500
C530        C  0.78352574  0.61723121  0.79693006     0.09700
C531        C  0.80784889  0.65910876  0.78134660    -0.12500
C532        C  0.83930836  0.68347416  0.81370030    -0.12500
C533        C  0.84702613  0.66596610  0.86180144     0.09700
C534        C  0.82191157  0.62479871  0.87745864    -0.12500
H535        H  0.77308855  0.56803764  0.85814506     0.13600
H536        H  0.80307501  0.67242490  0.74406494     0.13600
H537        H  0.85876578  0.71497027  0.80087537     0.13600
H538        H  0.82816053  0.61009678  0.91401667     0.13600
C539        C  0.14703323  0.48686556  0.63531836    -0.15600
C540        C  0.13644174  0.49712890  0.68245131    -0.30800
H541        H  0.18462057  0.48826261  0.62317143     0.13400
H542        H  0.09845068  0.49882256  0.69335550     0.14000
C543        C  0.15965892  0.60812235  0.86483475    -0.12500
C544        C  0.16323905  0.61587025  0.81386902     0.09700
C545        C  0.13974345  0.65649783  0.79283088    -0.12500
C546        C  0.10990760  0.68627127  0.82160354    -0.12500
C547        C  0.10272249  0.67527634  0.87153217     0.09700
C548        C  0.12972132  0.63745123  0.89328245    -0.12500
H549        H  0.17661361  0.57686237  0.88216218     0.13600
H550        H  0.14226259  0.66355260  0.75370683     0.13600
H551        H  0.08947216  0.71541173  0.80419114     0.13600
H552        H  0.12448989  0.62800421  0.93160035     0.13600
C553        C  0.80670483  0.49033921  0.31883616    -0.15600
C554        C  0.76207189  0.51076813  0.32112339    -0.30800
H555        H  0.82107413  0.48273797  0.28242978     0.13400
H556        H  0.74559877  0.51918884  0.35627684     0.14000
C557        C  0.77971556  0.59490437  0.11409613    -0.12500
C558        C  0.77838993  0.60515227  0.16482160     0.09700
C559        C  0.80841577  0.64209502  0.18328857    -0.12500
C560        C  0.84024015  0.66681654  0.15220163    -0.12500
C561        C  0.84347795  0.65450258  0.10217376     0.09700
C562        C  0.81194105  0.61916179  0.08323900    -0.12500
H563        H  0.75758808  0.56639902  0.09852866     0.13600
H564        H  0.80776034  0.65148742  0.22193568     0.13600
H565        H  0.86379160  0.69430426  0.16757807     0.13600
H566        H  0.81380055  0.60872826  0.04488763     0.13600
C567        C  0.17607785  0.50963584  0.30918310    -0.15600
C568        C  0.12723391  0.50329232  0.30839786    -0.30800
H569        H  0.19722122  0.50135153  0.34215458     0.13400
H570        H  0.10814518  0.50927994  0.27359487     0.14000
C571        C  0.15913944  0.60481635  0.11472149    -0.12500
C572        C  0.16777144  0.61937180  0.16348918     0.09700
C573        C  0.14372944  0.66071627  0.18147033    -0.12500
C574        C  0.10995569  0.68575725  0.15161745    -0.12500
C575        C  0.09980044  0.66941195  0.10373638     0.09700
C576        C  0.12544301  0.62950297  0.08522694    -0.12500
H577        H  0.17651808  0.57261587  0.10024704     0.13600
H578        H  0.14995431  0.67259138  0.21894501     0.13600
H579        H  0.09028666  0.71646289  0.16640510     0.13600
H580        H  0.11754470  0.61601651  0.04860738     0.13600
C581        C  0.49935465  0.31449121  0.18030465    -0.15600
C582        C  0.47279623  0.31376432  0.13857149    -0.30800
H583        H  0.51326088  0.34819913  0.19506504     0.13400
H584        H  0.46104076  0.27875001  0.12475344     0.14000
C585        C  0.48501497  0.63620607  0.13533443    -0.15600
C586        C  0.50176051  0.63305710  0.18217105    -0.30800
H587        H  0.48266860  0.67203724  0.11871400     0.13400
H588        H  0.50462621  0.59844475  0.20098940     0.14000
C589        C  0.48498248  0.63235481  0.80708340    -0.15600
C590        C  0.49344127  0.63055180  0.75804087    -0.30800
H591        H  0.48667357  0.66776403  0.82444116     0.13400
H592        H  0.49054731  0.59689062  0.73779468     0.14000
C593        C  0.64159434  0.50950542  0.77341411    -0.15600
C594        C  0.64335331  0.49746617  0.82155208    -0.30800
H595        H  0.60855466  0.50457137  0.75174422     0.13400
H596        H  0.67811099  0.50083454  0.84085956     0.14000
C597        C  0.50023469  0.31156295  0.76436493    -0.15600
C598        C  0.48888624  0.30888370  0.81269171    -0.30800
H599        H  0.49857648  0.34592846  0.74497870     0.13400
H600        H  0.48852376  0.27324923  0.82976958     0.14000
C601        C  0.32365709  0.48564513  0.79885762    -0.15600
C602        C  0.27574305  0.47759325  0.80368440    -0.30800
H603        H  0.33642134  0.50516710  0.76673539     0.13400
H604        H  0.26288502  0.45865825  0.83611550     0.14000
C605        C  0.30896018  0.50765747  0.17840922    -0.15600
C606        C  0.30830883  0.50178414  0.12894985    -0.30800
H607        H  0.34104528  0.49796042  0.20006174     0.13400
H608        H  0.27413590  0.50903798  0.10954832     0.14000
C609        C  0.63041461  0.50468527  0.18864490    -0.15600
C610        C  0.63362169  0.48667866  0.14271690    -0.30800
H611        H  0.59552448  0.50814303  0.20686115     0.13400
H612        H  0.66990433  0.48319358  0.12714078     0.14000
loop_ 
_geom_bond_atom_site_label_1 
_geom_bond_atom_site_label_2 
_geom_bond_distance 
_geom_bond_site_symmetry_2 
_ccdc_geom_bond_type 
O1          Zr13   2.425   1_554  S
O1            C3   1.285       .  A
O2          Zr39   2.450       .  S
O2            C3   1.291       .  A
C3          C582   1.472       .  S
O4          Zr16   2.431       .  S
O4            C6   1.286       .  A
O5          Zr40   2.449       .  S
O5            C6   1.289       .  A
C6          C594   1.479       .  S
O7          Zr16   2.431   1_554  S
O7            C9   1.285       .  A
O8          Zr39   2.460       .  S
O8            C9   1.291       .  A
C9          C610   1.481       .  S
O10         Zr13   2.447       .  S
O10          C12   1.290       .  A
O11         Zr40   2.462       .  S
O11          C12   1.293       .  A
C12         C598   1.488       .  S
Zr13         O14   2.437       .  S
Zr13         O15   2.434       .  S
Zr13         O19   2.380   1_556  S
Zr13         O20   2.378       .  S
Zr13         O43   2.364       .  S
Zr13         O45   2.372   1_556  S
O14          H57   0.990       .  S
O15          H56   0.990       .  S
O15          H60   0.990       .  S
Zr16         O17   2.437       .  S
Zr16         O18   2.435       .  S
Zr16         O20   2.357       .  S
Zr16         O19   2.361   1_556  S
Zr16         O44   2.373   1_556  S
Zr16         O46   2.376       .  S
O17          H58   0.990       .  S
O17          H61   0.989       .  S
O18          H51   0.990       .  S
O19         Zr39   2.398       .  S
O20         Zr40   2.400       .  S
O20          H47   0.964       .  S
O21         Zr33   2.456       .  S
O21          C23   1.293       .  A
O22         Zr40   2.432       .  S
O22          C23   1.288       .  A
C23         C601   1.482       .  S
O24         Zr36   2.447   1_554  S
O24          C26   1.289       .  A
O25         Zr39   2.445       .  S
O25          C26   1.289       .  A
C26         C585   1.481       .  S
O27         Zr36   2.447       .  S
O27          C29   1.290       .  A
O28         Zr40   2.457       .  S
O28          C29   1.291       .  A
C29         C589   1.487       .  S
O30         Zr33   2.443   1_554  S
O30          C32   1.289       .  A
O31         Zr39   2.462       .  S
O31          C32   1.292       .  A
C32         C606   1.487       .  S
Zr33         O34   2.435       .  S
Zr33         O35   2.435       .  S
Zr33         O41   2.366       .  S
Zr33         O42   2.375   1_556  S
Zr33         O45   2.369   1_556  S
Zr33         O43   2.373       .  S
O34          H54   0.990       .  S
O34          H59   0.990       .  S
O35          H55   0.990       .  S
Zr36         O37   2.435       .  S
Zr36         O38   2.436       .  S
Zr36         O42   2.363   1_556  S
Zr36         O41   2.359       .  S
Zr36         O46   2.374       .  S
Zr36         O44   2.370   1_556  S
O37          H53   0.990       .  S
O38          H52   0.990   1_556  S
O38          H62   0.990       .  S
Zr39         O42   2.394       .  S
Zr39         O44   2.399       .  S
Zr39         O45   2.406       .  S
Zr40         O41   2.395       .  S
Zr40         O43   2.399       .  S
Zr40         O46   2.396       .  S
O41          H49   0.964       .  S
O44          H48   0.967       .  S
O45          H50   0.965       .  S
C63         C605   1.502       .  S
C63          C64   1.406       .  A
C63          C68   1.418       .  A
C64          C65   1.396       .  A
C64          H69   1.084       .  S
C65          C66   1.399       .  A
C65         C572   1.481       .  S
C66          C67   1.410       .  A
C66          H70   1.084       .  S
C67         C567   1.502       .  S
C67          C68   1.419       .  A
C68          H71   1.083       .  S
C72         C554   1.492       .  S
C72          C73   1.412       .  A
C72          C77   1.410       .  A
C73          C74   1.412       .  A
C73          H78   1.083       .  S
C74         C609   1.493       .  S
C74          C75   1.408       .  A
C75          C76   1.400       .  A
C75          H79   1.084       .  S
C76          C77   1.403       .  A
C76         C558   1.493       .  S
C77          H80   1.084       .  S
C81         C602   1.477       .  S
C81          C82   1.401       .  A
C81          C86   1.411       .  A
C82          C83   1.401       .  A
C82          H87   1.085       .  S
C83          C84   1.401       .  A
C83         C544   1.485       .  S
C84          C85   1.403       .  A
C84          H88   1.084       .  S
C85         C540   1.481       .  S
C85          C86   1.411       .  A
C86          H89   1.083       .  S
C90         C525   1.490       .  S
C90          C91   1.413       .  A
C90          C95   1.410       .  A
C91          C92   1.411       .  A
C91          H96   1.083       .  S
C92         C593   1.493       .  S
C92          C93   1.406       .  A
C93          C94   1.398       .  A
C93          H97   1.084       .  S
C94          C95   1.399       .  A
C94         C530   1.483       .  S
C95          H98   1.084       .  S
N99         C104   1.351       .  A
N99         C103   1.352   1_556  A
N99         H131   1.040       .  S
N100        C107   1.353       .  A
N100        C108   1.352   1_655  A
N101        C106   1.350       .  A
N101        C105   1.349   1_556  A
N101        H132   1.039       .  S
N102        C109   1.352       .  A
N102        C110   1.353   1_655  A
C103        C111   1.387       .  A
C103        C119   1.415       .  A
C104        C120   1.412       .  A
C104        C112   1.387       .  A
C105        C113   1.387       .  A
C105        C122   1.410       .  A
C106        C121   1.410       .  A
C106        C114   1.386       .  A
C107        C119   1.416       .  A
C107        C115   1.387       .  A
C108        C122   1.414       .  A
C108        C116   1.386   1_455  A
C109        C117   1.385       .  A
C109        C120   1.411       .  A
C110        C118   1.388       .  A
C110        C121   1.415       .  A
C111        C112   1.379   1_554  A
C111        H123   1.082       .  S
C112        H124   1.083       .  S
C113        C114   1.379   1_554  A
C113        H125   1.082       .  S
C114        H126   1.082       .  S
C115        C116   1.373       .  A
C115        H127   1.081       .  S
C116        H128   1.082   1_655  S
C117        C118   1.371   1_655  A
C117        H129   1.082       .  S
C118        H130   1.081       .  S
C119        C561   1.495       .  S
C120        C533   1.486       .  S
C121        C547   1.487       .  S
C122        C575   1.483       .  S
O133       Zr145   2.436   1_455  S
O133        C135   1.287       .  A
O134       Zr171   2.471       .  S
O134        C135   1.294       .  A
C135        C568   1.490       .  S
O136       Zr148   2.429       .  S
O136        C138   1.286       .  A
O137       Zr172   2.466       .  S
O137        C138   1.293       .  A
C138        C514   1.484       .  S
O139       Zr148   2.430   1_455  S
O139        C141   1.286       .  A
O140       Zr171   2.471       .  S
O140        C141   1.294       .  A
C141        C521   1.485       .  S
O142       Zr145   2.431       .  S
O142        C144   1.286       .  A
O143       Zr172   2.464       .  S
O143        C144   1.293       .  A
C144        C553   1.483       .  S
Zr145       O146   2.438       .  S
Zr145       O147   2.435       .  S
Zr145       O151   2.364   1_655  S
Zr145       O152   2.367       .  S
Zr145       O175   2.374       .  S
Zr145       O177   2.377   1_655  S
O146        H189   0.990       .  S
O147        H188   0.990       .  S
O147        H192   0.990       .  S
Zr148       O149   2.436       .  S
Zr148       O150   2.435       .  S
Zr148       O152   2.367       .  S
Zr148       O151   2.362   1_655  S
Zr148       O176   2.368   1_655  S
Zr148       O178   2.361       .  S
O149        H190   0.990       .  S
O149        H193   0.990   1_655  S
O150        H183   0.990       .  S
O151       Zr171   2.390       .  S
O152       Zr172   2.398       .  S
O152        H179   0.964       .  S
O153       Zr165   2.439       .  S
O153        C155   1.288       .  A
O154       Zr172   2.483       .  S
O154        C155   1.296       .  A
C155        C510   1.495       .  S
O156       Zr168   2.452   1_455  S
O156        C158   1.292       .  A
O157       Zr171   2.440       .  S
O157        C158   1.289       .  A
C158        C539   1.490       .  S
O159       Zr168   2.438       .  S
O159        C161   1.287       .  A
O160       Zr172   2.445       .  S
O160        C161   1.290       .  A
C161        C526   1.479       .  S
O162       Zr165   2.435   1_455  S
O162        C164   1.288       .  A
O163       Zr171   2.470       .  S
O163        C164   1.294       .  A
C164        C517   1.488       .  S
Zr165       O166   2.439       .  S
Zr165       O167   2.434       .  S
Zr165       O173   2.372       .  S
Zr165       O174   2.365   1_655  S
Zr165       O177   2.380   1_655  S
Zr165       O175   2.371       .  S
O166        H186   0.990       .  S
O166        H191   0.990       .  S
O167        H187   0.990       .  S
Zr168       O169   2.436       .  S
Zr168       O170   2.437       .  S
Zr168       O174   2.364   1_655  S
Zr168       O173   2.371       .  S
Zr168       O178   2.366       .  S
Zr168       O176   2.369   1_655  S
O169        H185   0.990       .  S
O170        H184   0.990       .  S
O170        H194   0.990   1_655  S
Zr171       O174   2.396       .  S
Zr171       O176   2.402       .  S
Zr171       O177   2.407       .  S
Zr172       O173   2.402       .  S
Zr172       O175   2.399       .  S
Zr172       O178   2.394       .  S
O173        H181   0.965       .  S
O176        H180   0.967       .  S
O177        H182   0.967       .  S
C195        C586   1.492       .  S
C195        C196   1.412       .  A
C195        C200   1.404       .  A
C196        C197   1.414       .  A
C196        H201   1.083       .  S
C197        C495   1.497       .  S
C197        C198   1.413       .  A
C198        C199   1.405       .  A
C198        H202   1.083       .  S
C199        C200   1.400       .  A
C199        C500   1.494       .  S
C200        H203   1.084       .  S
C204        C481   1.482       .  S
C204        C205   1.408       .  A
C204        C209   1.406       .  A
C205        C206   1.398       .  A
C205        H210   1.084       .  S
C206        C207   1.400       .  A
C206        C486   1.486       .  S
C207        C208   1.409       .  A
C207        H211   1.084       .  S
C208        C581   1.481       .  S
C208        C209   1.406       .  A
C209        H212   1.084       .  S
C213        C467   1.496       .  S
C213        C214   1.419       .  A
C213        C218   1.405       .  A
C214        C215   1.420       .  A
C214        H219   1.083       .  S
C215        C597   1.501       .  S
C215        C216   1.407       .  A
C216        C217   1.397       .  A
C216        H220   1.084       .  S
C217        C218   1.390       .  A
C217        C472   1.475       .  S
C218        H221   1.085       .  S
C222        C590   1.501       .  S
C222        C223   1.421       .  A
C222        C227   1.403       .  A
C223        C224   1.424       .  A
C223        H228   1.083       .  S
C224        C454   1.506       .  S
C224        C225   1.411       .  A
C225        C226   1.398       .  A
C225        H229   1.083       .  S
C226        C227   1.391       .  A
C226        C458   1.481       .  S
C227        H230   1.085       .  S
N231        C236   1.354       .  A
N231        C235   1.356   1_565  A
N231        H263   1.042       .  S
N232        C239   1.351       .  A
N232        C240   1.349       .  A
N233        C238   1.354       .  A
N233        C237   1.353       .  A
N233        H264   1.042       .  S
N234        C241   1.351   1_556  A
N234        C242   1.350       .  A
C235        C243   1.384   1_545  A
C235        C251   1.414       .  A
C236        C252   1.419       .  A
C236        C244   1.389       .  A
C237        C245   1.385       .  A
C237        C254   1.412   1_565  A
C238        C253   1.418       .  A
C238        C246   1.390       .  A
C239        C251   1.409   1_556  A
C239        C247   1.385       .  A
C240        C254   1.410       .  A
C240        C248   1.387       .  A
C241        C249   1.388   1_554  A
C241        C252   1.415       .  A
C242        C250   1.386       .  A
C242        C253   1.411       .  A
C243        C244   1.374       .  A
C243        H255   1.082   1_565  S
C244        H256   1.081       .  S
C245        C246   1.373       .  A
C245        H257   1.082   1_565  S
C246        H258   1.081       .  S
C247        C248   1.371       .  A
C247        H259   1.082   1_556  S
C248        H260   1.083       .  S
C249        C250   1.376       .  A
C249        H261   1.083   1_556  S
C250        H262   1.083       .  S
C251        C489   1.493       .  S
C252        C503   1.493       .  S
C253        C461   1.488       .  S
C254        C475   1.482       .  S
C265        C522   1.500       .  S
C265        C266   1.411       .  A
C265        C270   1.417       .  A
C266        C267   1.398       .  A
C266        H271   1.084       .  S
C267        C268   1.396       .  A
C267        C444   1.484       .  S
C268        C269   1.407       .  A
C268        H272   1.084       .  S
C269        C439   1.497       .  S
C269        C270   1.416       .  A
C270        H273   1.083       .  S
C274        C425   1.502       .  S
C274        C275   1.403       .  A
C274        C279   1.421       .  A
C275        C276   1.396       .  A
C275        H280   1.085       .  S
C276        C277   1.400       .  A
C276        C430   1.483       .  S
C277        C278   1.411       .  A
C277        H281   1.084       .  S
C278        C509   1.506       .  S
C278        C279   1.422       .  A
C279        H282   1.083       .  S
C283        C412   1.501       .  S
C283        C284   1.418       .  A
C283        C288   1.408       .  A
C284        C285   1.419       .  A
C284        H289   1.083       .  S
C285        C518   1.501       .  S
C285        C286   1.409       .  A
C286        C287   1.398       .  A
C286        H290   1.084       .  S
C287        C288   1.398       .  A
C287        C416   1.485       .  S
C288        H291   1.084       .  S
C292        C513   1.497       .  S
C292        C293   1.414       .  A
C292        C297   1.415       .  A
C293        C294   1.402       .  A
C293        H298   1.084       .  S
C294        C295   1.395       .  A
C294        C402   1.486       .  S
C295        C296   1.403       .  A
C295        H299   1.085       .  S
C296        C397   1.491       .  S
C296        C297   1.412       .  A
C297        H300   1.083       .  S
N301        C306   1.354   1_655  A
N301        C305   1.353       .  A
N301        H333   1.042       .  S
N302        C309   1.352       .  A
N302        C310   1.350   1_565  A
N303        C308   1.356   1_655  A
N303        C307   1.354       .  A
N303        H334   1.042       .  S
N304        C311   1.350       .  A
N304        C312   1.349   1_565  A
C305        C313   1.388       .  A
C305        C321   1.415       .  A
C306        C322   1.412       .  A
C306        C314   1.386   1_455  A
C307        C315   1.389       .  A
C307        C324   1.419       .  A
C308        C323   1.416       .  A
C308        C316   1.386   1_455  A
C309        C321   1.412       .  A
C309        C317   1.386       .  A
C310        C324   1.413       .  A
C310        C318   1.388       .  A
C311        C319   1.385       .  A
C311        C322   1.408       .  A
C312        C320   1.386       .  A
C312        C323   1.409       .  A
C313        C314   1.373       .  A
C313        H325   1.082       .  S
C314        H326   1.082   1_655  S
C315        C316   1.373       .  A
C315        H327   1.081       .  S
C316        H328   1.082   1_655  S
C317        C318   1.374   1_565  A
C317        H329   1.083       .  S
C318        H330   1.083       .  S
C319        C320   1.373   1_565  A
C319        H331   1.082       .  S
C320        H332   1.083       .  S
C321        C405   1.487       .  S
C322        C447   1.487       .  S
C323        C419   1.490       .  S
C324        C433   1.488       .  S
O335       Zr347   2.436       .  S
O335        C337   1.287       .  A
O336       Zr373   2.458       .  S
O336        C337   1.291       .  A
C337        C440   1.483       .  S
O338       Zr350   2.427   1_545  S
O338        C340   1.285       .  A
O339       Zr374   2.440       .  S
O339        C340   1.289       .  A
C340        C482   1.470       .  S
O341       Zr350   2.438       .  S
O341        C343   1.287       .  A
O342       Zr373   2.468       .  S
O342        C343   1.293       .  A
C343        C496   1.487       .  S
O344       Zr347   2.439   1_545  S
O344        C346   1.288       .  A
O345       Zr374   2.466       .  S
O345        C346   1.293       .  A
C346        C411   1.488       .  S
Zr347       O348   2.434       .  S
Zr347       O349   2.436       .  S
Zr347       O353   2.376       .  S
Zr347       O354   2.369   1_565  S
Zr347       O377   2.370   1_565  S
Zr347       O379   2.375       .  S
O348        H391   0.989       .  S
O349        H390   0.990       .  S
O349        H394   0.990       .  S
Zr350       O351   2.435       .  S
Zr350       O352   2.436       .  S
Zr350       O354   2.370   1_565  S
Zr350       O353   2.368       .  S
Zr350       O378   2.373       .  S
Zr350       O380   2.380   1_565  S
O351        H392   0.990       .  S
O351        H395   0.990       .  S
O352        H385   0.990       .  S
O353       Zr373   2.401       .  S
O354       Zr374   2.405       .  S
O354        H381   0.965       .  S
O355       Zr367   2.450   1_545  S
O355        C357   1.290       .  A
O356       Zr374   2.446       .  S
O356        C357   1.289       .  A
C357        C468   1.483       .  S
O358       Zr370   2.449       .  S
O358        C360   1.290       .  A
O359       Zr373   2.439       .  S
O359        C360   1.288       .  A
C360        C398   1.480       .  S
O361       Zr370   2.456   1_545  S
O361        C363   1.292       .  A
O362       Zr374   2.458       .  S
O362        C363   1.291       .  A
C363        C426   1.491       .  S
O364       Zr367   2.449       .  S
O364        C366   1.290       .  A
O365       Zr373   2.458       .  S
O365        C366   1.291       .  A
C366        C453   1.491       .  S
Zr367       O368   2.438       .  S
Zr367       O369   2.433       .  S
Zr367       O375   2.365   1_565  S
Zr367       O376   2.366       .  S
Zr367       O379   2.369       .  S
Zr367       O377   2.368   1_565  S
O368        H388   0.990       .  S
O368        H393   0.990   1_565  S
O369        H389   0.990       .  S
Zr370       O371   2.434       .  S
Zr370       O372   2.437       .  S
Zr370       O376   2.370       .  S
Zr370       O375   2.368   1_565  S
Zr370       O380   2.369   1_565  S
Zr370       O378   2.368       .  S
O371        H387   0.990       .  S
O372        H386   0.990       .  S
O372        H396   0.990       .  S
Zr373       O376   2.395       .  S
Zr373       O378   2.404       .  S
Zr373       O379   2.404       .  S
Zr374       O375   2.397       .  S
Zr374       O377   2.395       .  S
Zr374       O380   2.402       .  S
O375        H383   0.967       .  S
O378        H382   0.966       .  S
O379        H384   0.965       .  S
C397        C398   1.351       .  D
C397        H399   1.086       .  S
C398        H400   1.089       .  S
C401        C402   1.407       .  A
C401        C406   1.393       .  A
C401        H407   1.083       .  S
C402        C403   1.406       .  A
C403        C404   1.403       .  A
C403        H408   1.083       .  S
C404        C405   1.406       .  A
C404        H409   1.083       .  S
C405        C406   1.401       .  A
C406        H410   1.084       .  S
C411        C412   1.353       .  D
C411        H413   1.088       .  S
C412        H414   1.085       .  S
C415        C416   1.404       .  A
C415        C420   1.393       .  A
C415        H421   1.083       .  S
C416        C417   1.407       .  A
C417        C418   1.403       .  A
C417        H422   1.083       .  S
C418        C419   1.405       .  A
C418        H423   1.083       .  S
C419        C420   1.404       .  A
C420        H424   1.084       .  S
C425        C426   1.357       .  D
C425        H427   1.085       .  S
C426        H428   1.088       .  S
C429        C430   1.405       .  A
C429        C434   1.390       .  A
C429        H435   1.083       .  S
C430        C431   1.407       .  A
C431        C432   1.403       .  A
C431        H436   1.083       .  S
C432        C433   1.406       .  A
C432        H437   1.083       .  S
C433        C434   1.402       .  A
C434        H438   1.084       .  S
C439        C440   1.350       .  D
C439        H441   1.085       .  S
C440        H442   1.089       .  S
C443        C444   1.406       .  A
C443        C448   1.395       .  A
C443        H449   1.083       .  S
C444        C445   1.406       .  A
C445        C446   1.401       .  A
C445        H450   1.083       .  S
C446        C447   1.404       .  A
C446        H451   1.083       .  S
C447        C448   1.403       .  A
C448        H452   1.084       .  S
C453        C454   1.356       .  D
C453        H455   1.087       .  S
C454        H456   1.086       .  S
C457        C458   1.404       .  A
C457        C462   1.400       .  A
C457        H463   1.083       .  S
C458        C459   1.406       .  A
C459        C460   1.393       .  A
C459        H464   1.083       .  S
C460        C461   1.403       .  A
C460        H465   1.084       .  S
C461        C462   1.406       .  A
C462        H466   1.083       .  S
C467        C468   1.353       .  D
C467        H469   1.085       .  S
C468        H470   1.089       .  S
C471        C472   1.407       .  A
C471        C476   1.402       .  A
C471        H477   1.083       .  S
C472        C473   1.402       .  A
C473        C474   1.388       .  A
C473        H478   1.083       .  S
C474        C475   1.402       .  A
C474        H479   1.084       .  S
C475        C476   1.404       .  A
C476        H480   1.083       .  S
C481        C482   1.344       .  D
C481        H483   1.086       .  S
C482        H484   1.089       .  S
C485        C486   1.407       .  A
C485        C490   1.401       .  A
C485        H491   1.083       .  S
C486        C487   1.405       .  A
C487        C488   1.398       .  A
C487        H492   1.083       .  S
C488        C489   1.405       .  A
C488        H493   1.083       .  S
C489        C490   1.404       .  A
C490        H494   1.083       .  S
C495        C496   1.349       .  D
C495        H497   1.086       .  S
C496        H498   1.088       .  S
C499        C500   1.408       .  A
C499        C504   1.403       .  A
C499        H505   1.082       .  S
C500        C501   1.409       .  A
C501        C502   1.393       .  A
C501        H506   1.082       .  S
C502        C503   1.402       .  A
C502        H507   1.083       .  S
C503        C504   1.407       .  A
C504        H508   1.083       .  S
C509        C510   1.354       .  D
C509        H511   1.085       .  S
C510        H512   1.088       .  S
C513        C514   1.349       .  D
C513        H515   1.086       .  S
C514        H516   1.088       .  S
C517        C518   1.352       .  D
C517        H519   1.088       .  S
C518        H520   1.085       .  S
C521        C522   1.350       .  D
C521        H523   1.088       .  S
C522        H524   1.085       .  S
C525        C526   1.348       .  D
C525        H527   1.086       .  S
C526        H528   1.088       .  S
C529        C530   1.405       .  A
C529        C534   1.391       .  A
C529        H535   1.083       .  S
C530        C531   1.407       .  A
C531        C532   1.403       .  A
C531        H536   1.083       .  S
C532        C533   1.406       .  A
C532        H537   1.083       .  S
C533        C534   1.402       .  A
C534        H538   1.084       .  S
C539        C540   1.346       .  D
C539        H541   1.087       .  S
C540        H542   1.087       .  S
C543        C544   1.405       .  A
C543        C548   1.391       .  A
C543        H549   1.083       .  S
C544        C545   1.408       .  A
C545        C546   1.402       .  A
C545        H550   1.083       .  S
C546        C547   1.405       .  A
C546        H551   1.083       .  S
C547        C548   1.403       .  A
C548        H552   1.084       .  S
C553        C554   1.347       .  D
C553        H555   1.089       .  S
C554        H556   1.086       .  S
C557        C558   1.408       .  A
C557        C562   1.398       .  A
C557        H563   1.083       .  S
C558        C559   1.407       .  A
C559        C560   1.401       .  A
C559        H564   1.082       .  S
C560        C561   1.405       .  A
C560        H565   1.083       .  S
C561        C562   1.405       .  A
C562        H566   1.083       .  S
C567        C568   1.352       .  D
C567        H569   1.085       .  S
C568        H570   1.088       .  S
C571        C572   1.404       .  A
C571        C576   1.391       .  A
C571        H577   1.083       .  S
C572        C573   1.407       .  A
C573        C574   1.403       .  A
C573        H578   1.083       .  S
C574        C575   1.404       .  A
C574        H579   1.083       .  S
C575        C576   1.401       .  A
C576        H580   1.084       .  S
C581        C582   1.342       .  D
C581        H583   1.086       .  S
C582        H584   1.089       .  S
C585        C586   1.351       .  D
C585        H587   1.089       .  S
C586        H588   1.086       .  S
C589        C590   1.356       .  D
C589        H591   1.089       .  S
C590        H592   1.085       .  S
C593        C594   1.349       .  D
C593        H595   1.086       .  S
C594        H596   1.088       .  S
C597        C598   1.354       .  D
C597        H599   1.085       .  S
C598        H600   1.088       .  S
C601        C602   1.342       .  D
C601        H603   1.087       .  S
C602        H604   1.087       .  S
C605        C606   1.354       .  D
C605        H607   1.085       .  S
C606        H608   1.088       .  S
C609        C610   1.348       .  D
C609        H611   1.085       .  S
C610        H612   1.089       .  S
