geometry optimzed in LAMMPS
_audit_creation_date              2020-11-30 
_audit_creation_method            'lammps2cif' 
_symmetry_space_group_name_H-M    'P1' 
_symmetry_Int_Tables_number       1 
_symmetry_cell_setting            triclinic 
loop_ 
_symmetry_equiv_pos_as_xyz 
  x,y,z 
_cell_length_a                    44.7447990930972 
_cell_length_b                    42.88960056864797 
_cell_length_c                    30.87253215091982 
_cell_angle_alpha                 89.8531842337812 
_cell_angle_beta                  90.38976510112333 
_cell_angle_gamma                 119.17538633203202 
loop_ 
_atom_site_label 
_atom_site_type_symbol 
_atom_site_fract_x 
_atom_site_fract_y 
_atom_site_fract_z 
_atom_site_charge 
N1          N  0.07187613  0.59444313  0.39285532    -0.06740
N2          N  0.07525026  0.61603701  0.42537333    -0.58860
N3          N  0.03069374  0.56264273  0.30017396    -0.06420
N4          N  0.01013597  0.56798491  0.27437451    -0.60990
N5          N  0.01379308  0.54334817  0.33368641    -0.06020
N6          N  0.98141389  0.53530764  0.33151281    -0.58840
N7          N  0.08881107  0.61331740  0.35893703    -0.05700
N8          N  0.10412686  0.64767231  0.36756626    -0.61340
C9          C  0.09593079  0.64918029  0.40915290     0.95430
C10         C  0.97949306  0.55076401  0.29416074     0.95210
N11         N  0.09795503  0.54009737  0.23292187    -0.06930
N12         N  0.09232353  0.52564293  0.19416133    -0.59440
N13         N  0.14282579  0.61537791  0.29347039    -0.05050
N14         N  0.16594387  0.64957814  0.29773252    -0.60690
N15         N  0.15795735  0.59609293  0.28859082    -0.06960
N16         N  0.19159902  0.61662087  0.28988404    -0.59710
N17         N  0.08280715  0.55961823  0.23704471    -0.04690
N18         N  0.06608282  0.55847872  0.20143087    -0.60780
Mn19       Mn  0.08644830  0.58877808  0.29643435     1.18440
C20         C  0.07204786  0.53700999  0.17534428     0.97520
C21         C  0.19653763  0.65012218  0.29526297     0.98180
N22         N  0.01092985  0.47575392  0.37676529    -0.06980
N23         N  0.97863174  0.45544148  0.36387815    -0.63290
N24         N  0.08663783  0.50986506  0.43279752    -0.05780
N25         N  0.10653366  0.51272571  0.46566124    -0.63960
N26         N  0.07114795  0.52872532  0.43909083    -0.06480
N27         N  0.08051202  0.54525765  0.47673316    -0.63550
N28         N  0.02753264  0.45763571  0.37338944    -0.05380
N29         N  0.00707543  0.42510700  0.35879344    -0.64240
Mn30       Mn  0.04059972  0.53512943  0.38752123     1.10660
C31         C  0.97642150  0.42353123  0.35329903     0.98740
C32         C  0.10249844  0.53481907  0.49270156     0.98820
N33         N  0.15547810  0.53646502  0.34100629    -0.06490
N34         N  0.18818731  0.54867599  0.33873831    -0.61860
N35         N  0.07998080  0.45828071  0.31224252    -0.05810
N36         N  0.07485764  0.42559894  0.31574256    -0.58590
N37         N  0.10438796  0.47685515  0.28446613    -0.07120
N38         N  0.11892217  0.45740287  0.27301757    -0.61430
N39         N  0.14110788  0.51079194  0.36948118    -0.06110
N40         N  0.16465808  0.50333188  0.38527886    -0.58620
Mn41       Mn  0.12902157  0.53724270  0.28542292     1.20190
Mn42       Mn  0.08355838  0.48349312  0.37301962     1.10090
Cl43       Cl  0.08449803  0.53624062  0.33548443    -0.86590
C44         C  0.19402276  0.52769264  0.36526242     0.95750
C45         C  0.09942373  0.42498261  0.29213596     0.95540
N46         N  0.08756243  0.61473683  0.84272162    -0.06740
N47         N  0.07699258  0.63843367  0.84615572    -0.58860
N48         N  0.16218580  0.61639229  0.83003460    -0.06420
N49         N  0.19511976  0.63914421  0.83174889    -0.60990
N50         N  0.14880384  0.61967990  0.79356631    -0.06020
N51         N  0.17252556  0.64540551  0.76968276    -0.58840
N52         N  0.10140006  0.61231725  0.87929341    -0.05700
N53         N  0.10039210  0.63406217  0.90854161    -0.61340
C54         C  0.08439141  0.64953330  0.88776462     0.95430
C55         C  0.20146876  0.65655487  0.79366998     0.95210
N56         N  0.14421455  0.52014144  0.88305402    -0.06930
N57         N  0.16745009  0.50992961  0.87639886    -0.59440
N58         N  0.09717113  0.55026686  0.93320482    -0.05050
N59         N  0.09236169  0.56173336  0.97028909    -0.60690
N60         N  0.08076748  0.51525045  0.93190702    -0.06960
N61         N  0.06493264  0.50208644  0.96885541    -0.59710
N62         N  0.15935229  0.55518501  0.88435816    -0.04690
N63         N  0.19268387  0.56935024  0.87868890    -0.60780
Mn64       Mn  0.13050411  0.58382400  0.88278570     1.18440
C65         C  0.19767247  0.54096485  0.87409372     0.97520
C66         C  0.07227240  0.53160250  0.99229105     0.98180
N67         N  0.09947536  0.56137841  0.72968530    -0.06980
N68         N  0.11796098  0.57649707  0.69517360    -0.63290
N69         N  0.02168728  0.52264660  0.77275788    -0.05780
N70         N  0.98810458  0.50974116  0.77154522    -0.63960
N71         N  0.03719974  0.55756545  0.77710811    -0.06480
N72         N  0.01460738  0.56897038  0.77906634    -0.63550
N73         N  0.08514844  0.52635796  0.72721168    -0.05380
N74         N  0.09336561  0.51699382  0.69056839    -0.64240
Mn75       Mn  0.09293660  0.58905426  0.78452007     1.10660
C76         C  0.11402751  0.54858857  0.67115848     0.98740
C77         C  0.98396572  0.53888874  0.77546790     0.98820
N78         N  0.02917034  0.45417810  0.86364740    -0.06490
N79         N  0.00542261  0.42177196  0.87672876    -0.61860
N80         N  0.07683340  0.45800592  0.78610530    -0.05810
N81         N  0.07205555  0.42745880  0.76831973    -0.58590
N82         N  0.09472694  0.46330948  0.82186380    -0.07120
N83         N  0.10419528  0.43919241  0.82767778    -0.61430
N84         N  0.01719445  0.46272813  0.82934843    -0.06110
N85         N  0.98545648  0.43899696  0.82097336    -0.58620
Mn86       Mn  0.08699842  0.48767632  0.87666509     1.20190
Mn87       Mn  0.05000262  0.49192013  0.77713687     1.10090
Cl88       Cl  0.08997836  0.53803450  0.83007119    -0.86590
C89         C  0.97778730  0.41301927  0.84995913     0.95750
C90         C  0.09051110  0.41688103  0.79440718     0.95540
N91         N  0.82928967  0.58097621  0.22815117    -0.06740
N92         N  0.85063256  0.58048396  0.25749513    -0.58860
N93         N  0.82750233  0.61484417  0.13239261    -0.06420
N94         N  0.85287303  0.63187541  0.10508341    -0.60990
N95         N  0.83006128  0.63563558  0.16483761    -0.06020
N96         N  0.85684352  0.66734102  0.16000764    -0.58840
N97         N  0.82669927  0.56051853  0.19508333    -0.05700
N98         N  0.84605979  0.54567449  0.20094055    -0.61340
C99         C  0.86028840  0.55782601  0.24019646     0.95430
C100        C  0.87078811  0.66475944  0.12248314     0.95210
N101        N  0.72978776  0.53920942  0.08858092    -0.06930
N102        N  0.71620922  0.53925788  0.05065811    -0.59440
N103        N  0.76782312  0.50062195  0.14284225    -0.05050
N104        N  0.78018461  0.47848683  0.14510623    -0.60690
N105        N  0.73440543  0.48342684  0.14520011    -0.06960
N106        N  0.72319682  0.44891514  0.14988199    -0.59710
N107        N  0.76345219  0.55541196  0.08599720    -0.04690
N108        N  0.77357748  0.56750411  0.04697990    -0.60780
Mn109      Mn  0.79685899  0.55755351  0.13791425     1.18440
C110        C  0.74407380  0.55742327  0.02561772     0.97520
C111        C  0.75215992  0.44633527  0.14978574     0.98180
N112        N  0.77639834  0.64409736  0.21691969    -0.06980
N113        N  0.78741834  0.67489213  0.19630588    -0.63290
N114        N  0.74301335  0.57157625  0.28480751    -0.05780
N115        N  0.73171969  0.55839048  0.32325770    -0.63960
N116        N  0.77654222  0.58963444  0.28444667    -0.06480
N117        N  0.78905820  0.58941765  0.32309108    -0.63550
N118        N  0.74287382  0.62760179  0.21990984    -0.05380
N119        N  0.73077204  0.64728097  0.20200687    -0.64240
Mn120      Mn  0.80392540  0.61381710  0.22516197     1.10660
C121        C  0.75867938  0.67696763  0.18784585     0.98740
C122        C  0.76056923  0.56955028  0.34639003     0.98820
N123        N  0.68606171  0.48807355  0.20772807    -0.06490
N124        N  0.66505284  0.45389133  0.21150819    -0.61860
N125        N  0.68619352  0.56974676  0.17149873    -0.05810
N126        N  0.66426116  0.57861878  0.18730365    -0.58590
N127        N  0.67087611  0.53693958  0.15693119    -0.07120
N128        N  0.63947504  0.52074045  0.17381481    -0.61430
N129        N  0.68090722  0.50701050  0.23691425    -0.06110
N130        N  0.65400204  0.48472828  0.26060906    -0.58620
Mn131      Mn  0.70472954  0.51146520  0.14780921     1.20190
Mn132      Mn  0.71263832  0.56885274  0.22963803     1.10090
Cl133      Cl  0.75483848  0.56285432  0.18534992    -0.86590
C134        C  0.64523514  0.45146321  0.24482770     0.95750
C135        C  0.63594571  0.54753152  0.19271970     0.95540
N136        N  0.83562594  0.58218776  0.73279953    -0.06740
N137        N  0.85730177  0.58116850  0.76160220    -0.58860
N138        N  0.83448971  0.61755698  0.63754771    -0.06420
N139        N  0.86077041  0.63393537  0.61143122    -0.60990
N140        N  0.83722732  0.63823025  0.67018160    -0.06020
N141        N  0.86528563  0.66925608  0.66676859    -0.58840
N142        N  0.83240774  0.56167388  0.69955548    -0.05700
N143        N  0.85132599  0.54619025  0.70493717    -0.61340
C144        C  0.86675961  0.55828482  0.74377551     0.95430
C145        C  0.87959010  0.66634569  0.62966120     0.95210
N146        N  0.73653589  0.54352347  0.59086617    -0.06930
N147        N  0.72402238  0.54240122  0.55180833    -0.59440
N148        N  0.77281270  0.50320490  0.64550845    -0.05050
N149        N  0.78440298  0.48032223  0.64675963    -0.60690
N150        N  0.73934276  0.48662816  0.64694174    -0.06960
N151        N  0.72737000  0.45189800  0.65001330    -0.59710
N152        N  0.77034330  0.55965254  0.58956187    -0.04690
N153        N  0.78149245  0.57074450  0.55045350    -0.60780
Mn154      Mn  0.80278795  0.56027657  0.64215322     1.18440
C155        C  0.75256500  0.55979674  0.52763140     0.97520
C156        C  0.75574599  0.44833639  0.64942698     0.98180
N157        N  0.78072982  0.64478224  0.71957926    -0.06980
N158        N  0.79205046  0.67510947  0.69768583    -0.63290
N159        N  0.74670449  0.57193947  0.78696362    -0.05780
N160        N  0.73541994  0.55746366  0.82492332    -0.63960
N161        N  0.78029744  0.58932825  0.78649394    -0.06480
N162        N  0.79273851  0.58703939  0.82428101    -0.63550
N163        N  0.74701593  0.62850820  0.72210054    -0.05380
N164        N  0.73532124  0.64788573  0.70228937    -0.64240
Mn165      Mn  0.80919823  0.61496398  0.72911360     1.10660
C166        C  0.76348358  0.67689664  0.68712436     0.98740
C167        C  0.76437216  0.56693876  0.84750421     0.98820
N168        N  0.69064344  0.48972970  0.70926663    -0.06490
N169        N  0.66892178  0.45552531  0.70978477    -0.61860
N170        N  0.68624638  0.56957851  0.67797826    -0.05810
N171        N  0.66169711  0.57550864  0.69167877    -0.58590
N172        N  0.67392089  0.53905305  0.65741371    -0.07120
N173        N  0.64012434  0.52133369  0.66441802    -0.61430
N174        N  0.68331556  0.50751447  0.73775441    -0.06110
N175        N  0.65365074  0.48447759  0.75612029    -0.58620
Mn176      Mn  0.70970393  0.51474532  0.64956396     1.20190
Mn177      Mn  0.71556451  0.56965171  0.73273408     1.10090
Cl178      Cl  0.75968039  0.56512397  0.68831540    -0.86590
C179        C  0.64542529  0.45177774  0.73870523     0.95750
C180        C  0.63274956  0.54495126  0.68524332     0.95540
N181        N  0.12127916  0.83836590  0.95992205    -0.06740
N182        N  0.13079956  0.81507137  0.94749075    -0.58860
N183        N  0.09003603  0.88953541  0.92980383    -0.06420
N184        N  0.07848848  0.88800012  0.89008250    -0.60990
N185        N  0.12371167  0.90810117  0.93016996    -0.06020
N186        N  0.13515184  0.92011698  0.89133317    -0.58840
N187        N  0.08791349  0.82246494  0.96386398    -0.05700
N188        N  0.07382472  0.78832704  0.95429566    -0.61340
C189        C  0.10081284  0.78410091  0.94403352     0.95430
C190        C  0.10693587  0.90717041  0.86620079     0.95210
N191        N  0.03727581  0.89164882  0.04014876    -0.06930
N192        N  0.01316789  0.90067650  0.04612269    -0.59440
N193        N  0.03693712  0.81454090  0.03580560    -0.05050
N194        N  0.01381244  0.78028113  0.03618071    -0.60690
N195        N  0.04188646  0.82751820  0.07515374    -0.06960
N196        N  0.02295408  0.80288906  0.10302292    -0.59710
N197        N  0.03574835  0.88048340  0.00017808    -0.04690
N198        N  0.01110288  0.88188477  0.97815293    -0.60780
Mn199      Mn  0.06201205  0.85136353  0.98153804     1.18440
C200        C  0.99769091  0.89527898  0.00672890     0.97520
C201        C  0.00552412  0.77348114  0.07872292     0.98180
N202        N  0.18834171  0.95448185  0.99197626    -0.06980
N203        N  0.21620566  0.98056559  0.97346752    -0.63290
N204        N  0.19343193  0.90136568  0.05550868    -0.05780
N205        N  0.22685274  0.91090083  0.05689667    -0.63960
N206        N  0.17989584  0.88048703  0.02175556    -0.06480
N207        N  0.20128379  0.87179492  0.00418362    -0.63550
N208        N  0.18540604  0.96497020  0.03073652    -0.05380
N209        N  0.20901110  0.99770796  0.03885973    -0.64240
Mn210      Mn  0.15361407  0.89575551  0.97527240     1.10660
C211        C  0.22801994  0.00774591  0.00316021     0.98740
C212        C  0.23113220  0.89140039  0.02445379     0.98820
N213        N  0.10200312  0.87379743  0.13464218    -0.06490
N214        N  0.09168641  0.86055138  0.17350526    -0.61860
N215        N  0.13394966  0.95665600  0.09887806    -0.05810
N216        N  0.14570215  0.99155372  0.10062733    -0.58590
N217        N  0.10034743  0.93990954  0.10089277    -0.07120
N218        N  0.08870339  0.96262178  0.10468192    -0.61430
N219        N  0.13562485  0.88949354  0.13231125    -0.06110
N220        N  0.14856321  0.88808364  0.17027186    -0.58620
Mn221      Mn  0.07001241  0.88342392  0.08869493     1.20190
Mn222      Mn  0.16258775  0.92805503  0.08090895     1.10090
Cl223      Cl  0.11200438  0.88976359  0.03158435    -0.86590
C224        C  0.12080419  0.86948887  0.19551030     0.95750
C225        C  0.11712015  0.99482324  0.10430484     0.95540
N226        N  0.12796853  0.83904446  0.46637771    -0.06740
N227        N  0.13922699  0.81597288  0.46109316    -0.58860
N228        N  0.09363813  0.88732228  0.43249379    -0.06420
N229        N  0.08083648  0.88524896  0.39341452    -0.60990
N230        N  0.12736680  0.90615352  0.43155642    -0.06020
N231        N  0.13773687  0.91724412  0.39194990    -0.58840
N232        N  0.09450252  0.82198714  0.46972438    -0.05700
N233        N  0.08222493  0.78719459  0.46670267    -0.61340
C234        C  0.11040008  0.78374449  0.46161609     0.95430
C235        C  0.10858892  0.90442980  0.36860806     0.95210
N236        N  0.04082560  0.89041705  0.54226364    -0.06930
N237        N  0.01701811  0.89966607  0.54861626    -0.59440
N238        N  0.04240796  0.81371677  0.54004701    -0.05050
N239        N  0.02175655  0.77884899  0.54140366    -0.60690
N240        N  0.04612415  0.82733375  0.57885301    -0.06960
N241        N  0.02845899  0.80260548  0.60737021    -0.59710
N242        N  0.03856606  0.87815165  0.50271732    -0.04690
N243        N  0.01324804  0.87885732  0.48130740    -0.60780
Mn244      Mn  0.06655189  0.84985195  0.48508748     1.18440
C245        C  0.00020563  0.89258861  0.51021226     0.97520
C246        C  0.01358981  0.77231515  0.58402219     0.98180
N247        N  0.19183060  0.95699049  0.49580732    -0.06980
N248        N  0.22042619  0.98382137  0.47938323    -0.63290
N249        N  0.19851261  0.90604162  0.55945698    -0.05780
N250        N  0.23241610  0.91799867  0.55930173    -0.63960
N251        N  0.18513412  0.88357077  0.52707622    -0.06480
N252        N  0.20729332  0.87592335  0.50953375    -0.63550
N253        N  0.18612863  0.96749837  0.53322278    -0.05380
N254        N  0.20803493  0.00073376  0.54169445    -0.64240
Mn255      Mn  0.15859464  0.89711200  0.47917694     1.10660
C256        C  0.22967883  0.01117804  0.50842103     0.98740
C257        C  0.23724219  0.89830348  0.52766124     0.98820
N258        N  0.10575205  0.87481452  0.63646211    -0.06490
N259        N  0.09474575  0.85905682  0.67385529    -0.61860
N260        N  0.13559833  0.95803208  0.60166884    -0.05810
N261        N  0.14618457  0.99274089  0.60390944    -0.58590
N262        N  0.10202799  0.94022538  0.60259651    -0.07120
N263        N  0.08921929  0.96198208  0.60585253    -0.61430
N264        N  0.13938536  0.89175041  0.63541317    -0.06110
N265        N  0.15163649  0.88896606  0.67331856    -0.58620
Mn266      Mn  0.07340728  0.88349870  0.59091777     1.20190
Mn267      Mn  0.16560643  0.93085081  0.58407981     1.10090
Cl268      Cl  0.11598392  0.89057100  0.53459612    -0.86590
C269        C  0.12338941  0.86813961  0.69706255     0.95750
C270        C  0.11685364  0.99477599  0.60691338     0.95540
N271        N  0.40598601  0.26315626  0.18917428    -0.06740
N272        N  0.40014202  0.27915111  0.22180238    -0.58860
N273        N  0.39186069  0.24360194  0.08280190    -0.06420
N274        N  0.37887571  0.24942411  0.04714316    -0.60990
N275        N  0.36757448  0.22045526  0.10791563    -0.06020
N276        N  0.33747982  0.20969643  0.08939233    -0.58840
N277        N  0.42964838  0.28666139  0.16356854    -0.05700
N278        N  0.44062813  0.31920197  0.17835233    -0.61340
C279        C  0.42251772  0.31397281  0.21501201     0.95430
C280        C  0.34489277  0.22745097  0.05106655     0.95210
N281        N  0.47518865  0.23223837  0.04904112    -0.06930
N282        N  0.47484365  0.21852150  0.01037235    -0.59440
N283        N  0.49740868  0.29712350  0.12685304    -0.05050
N284        N  0.51206870  0.32818629  0.14684183    -0.60690
N285        N  0.51558137  0.28076931  0.13141764    -0.06960
N286        N  0.54320501  0.30096739  0.15532356    -0.59170
N287        N  0.45881777  0.25077747  0.04680079    -0.04690
N288        N  0.44688875  0.24976964  0.00738422    -0.60780
Mn289      Mn  0.44501707  0.27075922  0.10397218     1.18440
C290        C  0.45713709  0.22989444  0.98484184     0.97520
C291        C  0.54083366  0.33081507  0.16424579     0.98180
N292        N  0.35486770  0.15094705  0.15170067    -0.06980
N293        N  0.32893916  0.13532705  0.12409946    -0.63290
N294        N  0.41249832  0.17614531  0.23670100    -0.05780
N295        N  0.42404322  0.17525191  0.27578512    -0.63960
N296        N  0.39510046  0.19354179  0.23665992    -0.06480
N297        N  0.39458293  0.20499129  0.27645324    -0.63550
N298        N  0.37191810  0.13333491  0.15357027    -0.05380
N299        N  0.35760230  0.10521946  0.12760562    -0.64240
Mn300      Mn  0.37944872  0.20667520  0.17273950     1.10660
C301        C  0.33068530  0.10653143  0.10940605     0.98740
C302        C  0.41246074  0.19288661  0.30046630     0.98820
N303        N  0.50587450  0.21125804  0.17676151    -0.06490
N304        N  0.53652524  0.21688936  0.18849476    -0.61860
N305        N  0.43595786  0.14344639  0.11428184    -0.05810
N306        N  0.42671929  0.10956609  0.11886356    -0.58590
N307        N  0.46869046  0.16240137  0.10572119    -0.07120
N308        N  0.48291488  0.14234085  0.11618546    -0.61430
N309        N  0.48174797  0.18496108  0.19899222    -0.06110
N310        N  0.49635971  0.17265101  0.22671883    -0.58620
Mn311      Mn  0.49267206  0.22256944  0.11397532     1.20190
Mn312      Mn  0.42550265  0.15910397  0.17683398     1.10090
Cl313      Cl  0.43586343  0.21514202  0.14239973    -0.86590
C314        C  0.53051045  0.19301113  0.22031175     0.95750
C315        C  0.45599611  0.10914175  0.12406782     0.95540
N316        N  0.41433193  0.26833378  0.68287478    -0.06740
N317        N  0.41165823  0.28735051  0.71443251    -0.58860
N318        N  0.39331490  0.24057673  0.57972184    -0.06420
N319        N  0.37817122  0.24587444  0.54573915    -0.60990
N320        N  0.37066249  0.22009887  0.60843401    -0.06020
N321        N  0.33958250  0.21049431  0.59409735    -0.58840
N322        N  0.43625451  0.28916326  0.65361681    -0.05700
N323        N  0.44900560  0.32294309  0.66454445    -0.61340
C324        C  0.43371941  0.32121564  0.70268124     0.95430
C325        C  0.34446602  0.22629280  0.55471446     0.95210
N326        N  0.47354867  0.22343903  0.54387772    -0.06930
N327        N  0.47250475  0.20849658  0.50582311    -0.59440
N328        N  0.50108900  0.29402116  0.61421488    -0.05050
N329        N  0.51695328  0.32638594  0.63085239    -0.60690
N330        N  0.51840674  0.27700274  0.62134442    -0.06960
N331        N  0.54648262  0.29805240  0.64431527    -0.59710
N332        N  0.45782176  0.24256987  0.54062057    -0.04690
N333        N  0.44570778  0.24087690  0.50120964    -0.60780
Mn334      Mn  0.44760886  0.26739802  0.59581889     1.18440
C335        C  0.45511022  0.21988435  0.47967563     0.97520
C336        C  0.54542299  0.32913313  0.64921640     0.98180
N337        N  0.35960541  0.15386439  0.65913598    -0.06980
N338        N  0.33427709  0.13921654  0.63070107    -0.63290
N339        N  0.41976577  0.18436286  0.74133143    -0.05780
N340        N  0.43093198  0.18468338  0.78098719    -0.63960
N341        N  0.40294691  0.20224748  0.73900562    -0.06480
N342        N  0.40234424  0.21528695  0.77780928    -0.63550
N343        N  0.37594166  0.13540549  0.66159359    -0.05380
N344        N  0.36163549  0.10789368  0.63432026    -0.64240
Mn345      Mn  0.38574532  0.21085572  0.67386503     1.10660
C346        C  0.33558772  0.11055502  0.61505182     0.98740
C347        C  0.41983023  0.20378906  0.80360090     0.98820
N348        N  0.50932361  0.21162059  0.67355673    -0.06490
N349        N  0.54111918  0.22133637  0.68448865    -0.61860
N350        N  0.43960597  0.13825756  0.62961596    -0.05810
N351        N  0.43139619  0.10476543  0.63460854    -0.58590
N352        N  0.46690316  0.15570738  0.60545478    -0.07120
N353        N  0.47906676  0.13339074  0.59673243    -0.61430
N354        N  0.48759437  0.18966256  0.70223831    -0.06110
N355        N  0.50516833  0.18374757  0.73322087    -0.58620
Mn356      Mn  0.49322254  0.21724082  0.60914803     1.20190
Mn357      Mn  0.43038522  0.16156575  0.68490885     1.10090
Cl358      Cl  0.43937570  0.21433240  0.64094482    -0.86590
C359        C  0.53884857  0.20402998  0.72168308     0.95750
C360        C  0.45611751  0.10137370  0.61539750     0.95540
N361        N  0.38261035  0.81726514  0.31202303    -0.06740
N362        N  0.36035732  0.78255096  0.31451088    -0.58860
N363        N  0.41341537  0.88138961  0.23796517    -0.06420
N364        N  0.41391824  0.89342215  0.19836314    -0.60990
N365        N  0.43249740  0.86556980  0.23987061    -0.06020
N366        N  0.44587081  0.86645184  0.20132731    -0.58840
N367        N  0.36589937  0.83540104  0.31162781    -0.05700
N368        N  0.33258032  0.81373679  0.31319242    -0.61340
C369        C  0.32907798  0.78071881  0.31560277     0.95430
C370        C  0.43402986  0.88394530  0.17576441     0.95210
N371        N  0.43695669  0.97318832  0.30496139    -0.06930
N372        N  0.45006027  0.00452506  0.28552154    -0.59440
N373        N  0.37280618  0.90550285  0.35979563    -0.05050
N374        N  0.34197928  0.89278920  0.37737060    -0.60690
N375        N  0.39580542  0.93037877  0.38530191    -0.06960
N376        N  0.38141326  0.93480639  0.42029114    -0.59710
N377        N  0.41483118  0.94826150  0.27919588    -0.04690
N378        N  0.41220763  0.96194809  0.24192058    -0.60780
Mn379      Mn  0.39043966  0.89210420  0.29682960     1.18440
C380        C  0.43476378  0.99706278  0.24587516     0.97520
C381        C  0.34783130  0.91104254  0.41551623     0.98180
N382        N  0.49854791  0.86839065  0.30021191    -0.06980
N383        N  0.51551322  0.85000546  0.30416429    -0.63290
N384        N  0.47143468  0.85347107  0.39285617    -0.05780
N385        N  0.47867991  0.83641231  0.42364171    -0.63960
N386        N  0.44780035  0.82979684  0.36688527    -0.06480
N387        N  0.43866086  0.79705414  0.37897893    -0.63550
N388        N  0.51818279  0.90031349  0.31670315    -0.05380
N389        N  0.54915304  0.90545035  0.32502288    -0.64240
Mn390      Mn  0.44006003  0.84462403  0.30328922     1.10660
C391        C  0.54762101  0.87387619  0.31894576     0.98740
C392        C  0.45762239  0.80122032  0.41459963     0.98820
N393        N  0.46241020  0.94216457  0.43181855    -0.06490
N394        N  0.44992972  0.94119311  0.47102740    -0.61860
N395        N  0.52228287  0.96851602  0.34990183    -0.05810
N396        N  0.54940239  0.98385457  0.32441624    -0.58590
N397        N  0.50461538  0.98558669  0.34699022    -0.07120
N398        N  0.51945543  0.01255471  0.31918924    -0.61430
N399        N  0.48007696  0.92512422  0.43231760    -0.06110
N400        N  0.48059722  0.91280463  0.47132727    -0.58620
Mn401      Mn  0.45041995  0.95922985  0.36843091     1.20190
Mn402      Mn  0.49831308  0.91239098  0.37375221     1.10090
Cl403      Cl  0.44424966  0.90157739  0.33562845    -0.86590
C404        C  0.46190014  0.92306148  0.49529805     0.95750
C405        C  0.54766580  0.01147428  0.30539516     0.95540
N406        N  0.38393632  0.81858239  0.81127695    -0.06740
N407        N  0.36195643  0.78384304  0.81055797    -0.58860
N408        N  0.41299597  0.88081181  0.73780659    -0.06420
N409        N  0.41203202  0.89134191  0.69786853    -0.60990
N410        N  0.43305092  0.86616092  0.74004953    -0.06020
N411        N  0.44593538  0.86654469  0.70137308    -0.58840
N412        N  0.36705698  0.83652323  0.81176284    -0.05700
N413        N  0.33386224  0.81488885  0.81119339    -0.61340
C414        C  0.33085996  0.78217225  0.81112602     0.95430
C415        C  0.43236917  0.88217889  0.67547022     0.95210
N416        N  0.43587023  0.97338509  0.80122449    -0.06930
N417        N  0.45030237  0.00362684  0.77895296    -0.59440
N418        N  0.37178544  0.90546494  0.85776053    -0.05050
N419        N  0.34066110  0.89197102  0.87453091    -0.60690
N420        N  0.39398443  0.93084364  0.88335305    -0.06960
N421        N  0.37864082  0.93493292  0.91771064    -0.59710
N422        N  0.41428053  0.94745730  0.77611804    -0.04690
N423        N  0.41352244  0.95917317  0.73675057    -0.60780
Mn424      Mn  0.39038817  0.89210634  0.79586954     1.18440
C425        C  0.43589190  0.99438883  0.73868736     0.97520
C426        C  0.34522501  0.91065159  0.91204444     0.98180
N427        N  0.49916946  0.87025814  0.80159110    -0.06980
N428        N  0.51606384  0.85229263  0.80982370    -0.63290
N429        N  0.47236131  0.85544641  0.89326697    -0.05780
N430        N  0.47915817  0.83847112  0.92476855    -0.63960
N431        N  0.44839869  0.83160028  0.86781654    -0.06480
N432        N  0.43833027  0.79891906  0.88116175    -0.63550
N433        N  0.51834436  0.90307955  0.81570984    -0.05380
N434        N  0.54940799  0.90908551  0.82512859    -0.64240
Mn435      Mn  0.44088272  0.84608063  0.80372809     1.10660
C436        C  0.54785562  0.87715025  0.82428171     0.98740
C437        C  0.45713096  0.80307164  0.91702443     0.98820
N438        N  0.46105431  0.94393577  0.93081345    -0.06490
N439        N  0.44868098  0.94323531  0.97006956    -0.61860
N440        N  0.52105169  0.97086383  0.84877281    -0.05810
N441        N  0.54811678  0.98706941  0.82321301    -0.58590
N442        N  0.50276308  0.98729227  0.84627837    -0.07120
N443        N  0.51700119  0.01453925  0.81892510    -0.61430
N444        N  0.47874874  0.92686012  0.93156613    -0.06110
N445        N  0.47895874  0.91443973  0.97064270    -0.58620
Mn446      Mn  0.44879763  0.96039607  0.86673173     1.20190
Mn447      Mn  0.49817387  0.91466171  0.87326636     1.10090
Cl448      Cl  0.44428424  0.90301001  0.83513186    -0.86590
C449        C  0.46041648  0.92495115  0.99455992     0.95750
C450        C  0.54568326  0.01465096  0.80517801     0.95540
N451        N  0.74113347  0.25951084  0.15074976    -0.06740
N452        N  0.72713870  0.28023080  0.15437347    -0.58860
N453        N  0.77738025  0.23201330  0.07864554    -0.06420
N454        N  0.78970535  0.23351506  0.03947211    -0.60990
N455        N  0.74368797  0.21130267  0.07862918    -0.06020
N456        N  0.73274666  0.19880350  0.03904764    -0.58840
N457        N  0.77456495  0.27878141  0.15132803    -0.05700
N458        N  0.78410183  0.31289274  0.15477096    -0.61340
C459        C  0.75428242  0.31347188  0.15676882     0.95430
C460        C  0.76177457  0.21280766  0.01501422     0.95210
N461        N  0.84384912  0.21312732  0.15370796    -0.06930
N462        N  0.87229062  0.21199837  0.14821265    -0.59440
N463        N  0.83495351  0.27633240  0.20262675    -0.05050
N464        N  0.85398575  0.30957116  0.21663960    -0.60690
N465        N  0.83727974  0.25374509  0.22977285    -0.06960
N466        N  0.85819078  0.27128316  0.26229928    -0.59710
N467        N  0.84202083  0.23552817  0.12627560    -0.04690
N468        N  0.86958632  0.25035018  0.10167908    -0.60780
Mn469      Mn  0.80753351  0.25656054  0.13896084     1.18440
C470        C  0.88823471  0.23529090  0.11585421     0.97520
C471        C  0.86801651  0.30605793  0.25421391     0.98180
N472        N  0.68162926  0.14163311  0.13678351    -0.06980
N473        N  0.64879121  0.12498607  0.14879025    -0.63290
N474        N  0.68867666  0.16653386  0.22752593    -0.05780
N475        N  0.66118387  0.15509732  0.25265876    -0.63960
N476        N  0.69113271  0.19309841  0.20347948    -0.06480
N477        N  0.66691678  0.20086544  0.21248601    -0.63550
N478        N  0.69492104  0.12172975  0.14940141    -0.05380
N479        N  0.67067066  0.08955271  0.15963988    -0.64240
Mn480      Mn  0.71440608  0.20171298  0.14077243     1.10660
C481        C  0.64244977  0.09246061  0.16403366     0.98740
C482        C  0.64840669  0.17763290  0.24361906     0.98820
N483        N  0.78396317  0.18073093  0.27315364    -0.06490
N484        N  0.79449547  0.19333646  0.31278698    -0.61860
N485        N  0.75626013  0.11982228  0.18662720    -0.05810
N486        N  0.74700222  0.09340826  0.15803981    -0.58590
N487        N  0.78982953  0.13991006  0.18672640    -0.07120
N488        N  0.80350242  0.12740503  0.15794153    -0.61430
N489        N  0.75045280  0.16165813  0.27203016    -0.06110
N490        N  0.73750728  0.16106555  0.31070985    -0.58620
Mn491      Mn  0.81403640  0.19601494  0.21233876     1.20190
Mn492      Mn  0.72258693  0.14177167  0.21013585     1.10090
Cl493      Cl  0.76474988  0.19935581  0.17576169    -0.86590
C494        C  0.76526378  0.18056457  0.33614260     0.95750
C495        C  0.77664538  0.09779749  0.14062323     0.95540
N496        N  0.74463324  0.26283316  0.65857127    -0.06740
N497        N  0.73249241  0.28501757  0.66427214    -0.58860
N498        N  0.77620004  0.23403670  0.58160387    -0.06420
N499        N  0.78780140  0.23540183  0.54199234    -0.60990
N500        N  0.74234526  0.21505936  0.58201650    -0.06020
N501        N  0.73060784  0.20385009  0.54220038    -0.58840
N502        N  0.77812773  0.28040772  0.65854650    -0.05700
N503        N  0.78955236  0.31487487  0.66336981    -0.61340
C504        C  0.76082895  0.31741290  0.66754494     0.95430
C505        C  0.75932039  0.21695573  0.51745207     0.95210
N506        N  0.83818309  0.20556373  0.64919119    -0.06930
N507        N  0.86327539  0.19986402  0.63798691    -0.59440
N508        N  0.83609693  0.27002848  0.70591389    -0.05050
N509        N  0.85657445  0.30185235  0.72298490    -0.60690
N510        N  0.83615180  0.24493177  0.73066723    -0.06960
N511        N  0.85614107  0.25903209  0.76492710    -0.59710
N512        N  0.83791181  0.23042788  0.62480009    -0.04690
N513        N  0.86345214  0.24287747  0.59711837    -0.60780
Mn514      Mn  0.80763007  0.25489267  0.64215186     1.18440
C515        C  0.87882162  0.22314784  0.60540271     0.97520
C516        C  0.86842005  0.29451713  0.76023399     0.98180
N517        N  0.67848634  0.14588879  0.63903998    -0.06980
N518        N  0.64525378  0.13168326  0.64826896    -0.63290
N519        N  0.68974735  0.16852820  0.73236694    -0.05780
N520        N  0.66432854  0.15997175  0.76031719    -0.63960
N521        N  0.69433798  0.19686248  0.71043515    -0.06480
N522        N  0.67418356  0.20888260  0.72412541    -0.63550
N523        N  0.68834195  0.12289743  0.65137127    -0.05380
N524        N  0.66162678  0.09180024  0.66031000    -0.64240
Mn525      Mn  0.71480085  0.20536352  0.64587576     1.10660
C526        C  0.63486275  0.09768219  0.66193675     0.98740
C527        C  0.65516962  0.18598250  0.75535919     0.98820
N528        N  0.78232357  0.17342908  0.77108019    -0.06490
N529        N  0.79432384  0.18676037  0.81003113    -0.61860
N530        N  0.74998455  0.11540257  0.68142007    -0.05810
N531        N  0.74010927  0.09003079  0.65109555    -0.58590
N532        N  0.78367871  0.13392832  0.68227365    -0.07120
N533        N  0.79688491  0.12169573  0.65274851    -0.61430
N534        N  0.74875904  0.15638657  0.77108388    -0.06110
N535        N  0.73722343  0.15795285  0.80997725    -0.58620
Mn536      Mn  0.81044532  0.18861828  0.70951863     1.20190
Mn537      Mn  0.71906218  0.13971396  0.71003615     1.10090
Cl538      Cl  0.76297991  0.19731553  0.67686224    -0.86590
C539        C  0.76591261  0.17677357  0.83412832     0.95750
C540        C  0.76969606  0.09391059  0.63361485     0.95540
N541        N  0.04928924  0.22916768  0.05679994    -0.06740
N542        N  0.03412843  0.23961450  0.08473620    -0.58860
N543        N  0.02886131  0.15978118  0.99396806    -0.06420
N544        N  0.99670628  0.13551718  0.98505521    -0.60990
N545        N  0.03635908  0.15480815  0.03377187    -0.06020
N546        N  0.01026749  0.12718360  0.05180571    -0.58840
N547        N  0.04180165  0.23382859  0.01689439    -0.05700
N548        N  0.02023554  0.24663085  0.01720391    -0.61340
C549        C  0.01578562  0.25008540  0.06003582     0.95430
C550        C  0.98548059  0.11520919  0.02156418     0.95210
N551        N  0.11608555  0.20913248  0.90963960    -0.06930
N552        N  0.12517007  0.20457351  0.87102953    -0.59440
N553        N  0.08782091  0.26637902  0.93253729    -0.05050
N554        N  0.07409006  0.28217940  0.90936650    -0.60690
N555        N  0.12102238  0.28174278  0.92580975    -0.06960
N556        N  0.13023706  0.30840703  0.89784835    -0.59710
N557        N  0.08252303  0.19580727  0.91150384    -0.04690
N558        N  0.06916802  0.18410390  0.87266103    -0.60780
Mn559      Mn  0.05944023  0.21346628  0.96293195     1.18440
C560        C  0.09613602  0.18969505  0.84755093     0.97520
C561        C  0.10066368  0.30845821  0.88773344     0.98180
N562        N  0.10106261  0.16773434  0.08675481    -0.06980
N563        N  0.08935817  0.13385752  0.09724976    -0.63290
N564        N  0.14264961  0.25448719  0.11081139    -0.05780
N565        N  0.15757914  0.26252411  0.14930437    -0.63960
N566        N  0.10933942  0.24009222  0.11507313    -0.06480
N567        N  0.10130692  0.23944547  0.15590625    -0.63550
N568        N  0.13424682  0.18360789  0.08113759    -0.05380
N569        N  0.14595947  0.16110954  0.08735336    -0.64240
Mn570      Mn  0.07394254  0.19787012  0.07304324     1.10660
C571        C  0.11787561  0.13023166  0.09799833     0.98740
C572        C  0.13135001  0.25326019  0.17688777     0.98820
N573        N  0.18415263  0.29952825  0.98908932    -0.06490
N574        N  0.20585886  0.33210711  0.97665583    -0.61860
N575        N  0.17906209  0.21740699  0.00519074    -0.05810
N576        N  0.20224507  0.20838513  0.01469276    -0.58590
N577        N  0.18365659  0.23123124  0.96641622    -0.07120
N578        N  0.21318853  0.23562193  0.95092265    -0.61430
N579        N  0.19034457  0.29384462  0.02923938    -0.06110
N580        N  0.21705796  0.32308363  0.04476511    -0.58620
Mn581      Mn  0.15152218  0.25572196  0.94706504     1.20190
Mn582      Mn  0.16214192  0.23810943  0.05674781     1.10090
Cl583      Cl  0.11162611  0.22644802  0.00980801    -0.86590
C584        C  0.22601314  0.34687304  0.01161947     0.95750
C585        C  0.22436845  0.22092338  0.98197029     0.95540
N586        N  0.04455867  0.22833377  0.55411537    -0.06740
N587        N  0.02830366  0.23703774  0.58230183    -0.58860
N588        N  0.02758169  0.16433306  0.48548573    -0.06420
N589        N  0.99586366  0.14119845  0.47310100    -0.60990
N590        N  0.03297072  0.15650355  0.52509987    -0.06020
N591        N  0.00570686  0.12826834  0.53990887    -0.58840
N592        N  0.03950781  0.23634864  0.51464636    -0.05700
N593        N  0.01861393  0.24994919  0.51545765    -0.61340
C594        C  0.01204079  0.25031926  0.55831020     0.95430
C595        C  0.98284711  0.11895910  0.50755684     0.95210
N596        N  0.11940792  0.21876647  0.41013400    -0.06930
N597        N  0.13053703  0.21554950  0.37213212    -0.59440
N598        N  0.09005296  0.27517836  0.43657158    -0.05050
N599        N  0.07953302  0.29580819  0.41723253    -0.60690
N600        N  0.12349785  0.29010497  0.43472040    -0.06960
N601        N  0.13639099  0.32126527  0.41478164    -0.59710
N602        N  0.08572733  0.20460135  0.40960719    -0.04690
N603        N  0.07398428  0.19247546  0.37030789    -0.60780
Mn604      Mn  0.05978868  0.21967825  0.46029446     1.18440
C605        C  0.10226721  0.19929295  0.34731827     0.97520
C606        C  0.10886584  0.32501333  0.40450885     0.98180
N607        N  0.09535169  0.16564838  0.58326187    -0.06980
N608        N  0.08391031  0.13112636  0.59008511    -0.63290
N609        N  0.13440800  0.25203282  0.61498115    -0.05780
N610        N  0.14619657  0.26095631  0.65500109    -0.63960
N611        N  0.10092894  0.23708942  0.61516307    -0.06480
N612        N  0.08975991  0.23757518  0.65409892    -0.63550
N613        N  0.12888689  0.18271990  0.58246249    -0.05380
N614        N  0.14100686  0.16057473  0.58858645    -0.64240
Mn615      Mn  0.06835088  0.19641721  0.56946781     1.10660
C616        C  0.11293252  0.12840747  0.59349688     0.98740
C617        C  0.11792333  0.25211677  0.67919224     0.98820
N618        N  0.17841618  0.30306364  0.50099626    -0.06490
N619        N  0.20156353  0.33348272  0.48516251    -0.61860
N620        N  0.17718374  0.22013826  0.51100026    -0.05810
N621        N  0.19993743  0.21065297  0.52105288    -0.58590
N622        N  0.18345877  0.23610009  0.47339392    -0.07120
N623        N  0.21352243  0.24077532  0.45929112    -0.61430
N624        N  0.18915256  0.29490353  0.53672448    -0.06110
N625        N  0.22211598  0.31866795  0.54240500    -0.58620
Mn626      Mn  0.15148866  0.26189642  0.45430148     1.20190
Mn627      Mn  0.15799814  0.23826853  0.56202748     1.10090
Cl628      Cl  0.10915259  0.22876568  0.51127543    -0.86590
C629        C  0.22931172  0.34251157  0.50942690     0.95750
C630        C  0.22341119  0.22459325  0.49002235     0.95540
N631        N  0.82867282  0.90053114  0.95653273    -0.06740
N632        N  0.86179258  0.91421326  0.96418693    -0.58860
N633        N  0.76732033  0.86898763  0.88501268    -0.06420
N634        N  0.75995645  0.85773846  0.84476877    -0.60990
N635        N  0.78116641  0.90419805  0.88677541    -0.06020
N636        N  0.78414430  0.91722153  0.84700906    -0.58840
N637        N  0.81359114  0.86550703  0.95650799    -0.05700
N638        N  0.83628892  0.85467331  0.96359842    -0.61340
C639        C  0.86632484  0.88545636  0.96861212     0.95430
C640        C  0.77074864  0.88771614  0.82109753     0.95210
N641        N  0.68055175  0.80152903  0.95316270    -0.06930
N642        N  0.64981688  0.78497705  0.93523349    -0.59440
N643        N  0.74846294  0.80212114  0.00393459    -0.05050
N644        N  0.76253911  0.78357269  0.02044586    -0.60690
N645        N  0.72480736  0.80054153  0.03040088    -0.06960
N646        N  0.72219116  0.78099901  0.06466693    -0.59710
N647        N  0.70363687  0.80398575  0.92535126    -0.04690
N648        N  0.68896881  0.78932447  0.88782470    -0.60780
Mn649      Mn  0.75866370  0.83406096  0.94213795     1.18440
C650        C  0.65515452  0.77751039  0.89432751     0.97520
C651        C  0.74568841  0.77025679  0.05850345     0.98180
N652        N  0.77892546  0.97041491  0.95387269    -0.06980
N653        N  0.79676100  0.00376131  0.96958857    -0.63290
N654        N  0.79752494  0.95694355  0.03831189    -0.05780
N655        N  0.81737125  0.98811886  0.05802783    -0.63960
N656        N  0.81738644  0.94928962  0.01465109    -0.06480
N657        N  0.84976853  0.97221092  0.02014576    -0.63550
N658        N  0.74723390  0.95810954  0.96684058    -0.05380
N659        N  0.74236259  0.98389095  0.98256970    -0.64240
Mn660      Mn  0.80108219  0.93122434  0.95093868     1.10660
C661        C  0.77357289  0.01210092  0.98745170     0.98740
C662        C  0.85004136  0.99689598  0.04631386     0.98820
N663        N  0.71339364  0.85762871  0.07961971    -0.06490
N664        N  0.71392289  0.84529575  0.11892598    -0.61860
N665        N  0.68440528  0.89350706  0.00027957    -0.05810
N666        N  0.66763726  0.90543201  0.97562383    -0.58590
N667        N  0.66872946  0.85835014  0.99861636    -0.07120
N668        N  0.64132571  0.84614968  0.97313626    -0.61430
N669        N  0.73011249  0.89272188  0.08002206    -0.06110
N670        N  0.74227173  0.90500196  0.11897245    -0.58620
Mn671      Mn  0.69554150  0.82847374  0.01681121     1.20190
Mn672      Mn  0.73930386  0.92517019  0.02232380     1.10090
Cl673      Cl  0.74855459  0.87930585  0.98263867    -0.86590
C674        C  0.73185098  0.87534426  0.14307286     0.95750
C675        C  0.64035372  0.87561255  0.95946976     0.95540
N676        N  0.83392971  0.90323529  0.45989481    -0.06740
N677        N  0.86732952  0.91734809  0.46600400    -0.58860
N678        N  0.77410451  0.86952314  0.38667831    -0.06420
N679        N  0.76414199  0.85709121  0.34717541    -0.60990
N680        N  0.78691840  0.90465554  0.38745515    -0.06020
N681        N  0.78654878  0.91660919  0.34789741    -0.58840
N682        N  0.81917059  0.86834250  0.46169336    -0.05700
N683        N  0.84201912  0.85776592  0.46846275    -0.61340
C684        C  0.87199093  0.88866078  0.47101967     0.95430
C685        C  0.77229429  0.88645540  0.32325215     0.95210
N686        N  0.68676712  0.80158343  0.45047646    -0.06930
N687        N  0.65736244  0.78128016  0.43000022    -0.59440
N688        N  0.75379144  0.80565868  0.50869779    -0.05050
N689        N  0.76735787  0.78735975  0.52727848    -0.60690
N690        N  0.72869258  0.80363116  0.53273368    -0.06960
N691        N  0.72473428  0.78409526  0.56754310    -0.59710
N692        N  0.71226542  0.80427945  0.42699444    -0.04690
N693        N  0.70123383  0.78608160  0.39066483    -0.60780
Mn694      Mn  0.76541207  0.83625411  0.44589396     1.18440
C695        C  0.66709541  0.77211801  0.39255116     0.97520
C696        C  0.74893199  0.77398744  0.56432579     0.98180
N697        N  0.78239282  0.97145224  0.44986730    -0.06980
N698        N  0.79905485  0.00482020  0.46590175    -0.63290
N699        N  0.79789018  0.95978955  0.53549240    -0.05780
N700        N  0.81923497  0.99178020  0.55287777    -0.63960
N701        N  0.81662659  0.94808470  0.51657196    -0.06480
N702        N  0.84897168  0.96816580  0.52451801    -0.63550
N703        N  0.74987653  0.95888845  0.45895631    -0.05380
N704        N  0.74379399  0.98457329  0.47191547    -0.64240
Mn705      Mn  0.80490944  0.93237549  0.45130293     1.10660
C706        C  0.77451249  0.01286004  0.47980336     0.98740
C707        C  0.85148815  0.99628897  0.54564587     0.98820
N708        N  0.71526047  0.86160342  0.57614348    -0.06490
N709        N  0.71942869  0.85128619  0.61526736    -0.61860
N710        N  0.68605175  0.89392060  0.49167593    -0.05810
N711        N  0.66900822  0.90450860  0.46546985    -0.58590
N712        N  0.67131578  0.85873821  0.49132398    -0.07120
N713        N  0.64411969  0.84512606  0.46536295    -0.61430
N714        N  0.72950832  0.89660596  0.57537748    -0.06110
N715        N  0.74276516  0.91048385  0.61339866    -0.58620
Mn716      Mn  0.69877786  0.83030333  0.51402809     1.20190
Mn717      Mn  0.74000351  0.92738304  0.51631073     1.10090
Cl718      Cl  0.75206681  0.88130210  0.48145269    -0.86590
C719        C  0.73663608  0.88223382  0.63825790     0.95750
C720        C  0.64265233  0.87380480  0.44962856     0.95540
N721        N  0.47440348  0.62969862  0.41215209    -0.06740
N722        N  0.48889157  0.66472314  0.41792791    -0.58860
N723        N  0.43715635  0.54881677  0.45431706    -0.06420
N724        N  0.42392820  0.53256151  0.49057143    -0.60990
N725        N  0.47051484  0.56222464  0.45422185    -0.06020
N726        N  0.48075443  0.55674617  0.49256385    -0.58840
N727        N  0.44097544  0.61541338  0.41361552    -0.05700
N728        N  0.43204022  0.63988723  0.42136012    -0.61340
C729        C  0.46204929  0.67069217  0.42414020     0.95430
C730        C  0.45086727  0.53756904  0.51456245     0.95210
N731        N  0.36881633  0.48330408  0.36750035    -0.06930
N732        N  0.34966336  0.44878531  0.37561784    -0.59440
N733        N  0.37630887  0.56442761  0.35768029    -0.05050
N734        N  0.35068413  0.56991627  0.36720343    -0.60690
N735        N  0.37021740  0.54690066  0.32083595    -0.06960
N736        N  0.34032715  0.54016514  0.30504720    -0.59710
N737        N  0.37484665  0.50144379  0.40361496    -0.04690
N738        N  0.36033271  0.48029446  0.43680085    -0.60780
Mn739      Mn  0.40723349  0.55826394  0.40745654     1.18440
C740        C  0.34505075  0.44747104  0.41933923     0.97520
C741        C  0.32870030  0.55503918  0.33393372     0.98180
N742        N  0.52332892  0.56329039  0.37567306    -0.06980
N743        N  0.55559721  0.57475751  0.36328047    -0.63290
N744        N  0.51987692  0.61059661  0.30571769    -0.05780
N745        N  0.54595461  0.63357434  0.28158546    -0.63960
N746        N  0.52053873  0.62612171  0.34249017    -0.06480
N747        N  0.54544525  0.65903739  0.34422075    -0.63550
N748        N  0.50380325  0.53547100  0.35170780    -0.05380
N749        N  0.52140761  0.52265761  0.33248917    -0.64240
Mn750      Mn  0.49816139  0.59573128  0.39788465     1.10660
C751        C  0.55358016  0.54846295  0.33628255     0.98740
C752        C  0.56105407  0.66391367  0.30611666     0.98820
N753        N  0.42011934  0.54545230  0.24947470    -0.06490
N754        N  0.40805595  0.54948140  0.21188915    -0.61860
N755        N  0.44785389  0.49349118  0.29175240    -0.05810
N756        N  0.45630108  0.46850827  0.28484695    -0.58590
N757        N  0.41465470  0.47937663  0.29495599    -0.07120
N758        N  0.39941515  0.44449746  0.28940620    -0.61430
N759        N  0.45375270  0.56079557  0.24815747    -0.06110
N760        N  0.46525187  0.57571963  0.21028798    -0.58620
Mn761      Mn  0.39244055  0.51309224  0.30701226     1.20190
Mn762      Mn  0.48231272  0.55083240  0.29832309     1.10090
Cl763      Cl  0.44489733  0.55502666  0.35214789    -0.86590
C764        C  0.43668208  0.56910165  0.18817899     0.95750
C765        C  0.42593170  0.43826334  0.28373461     0.95540
N766        N  0.39911477  0.48287419  0.91309542    -0.06740
N767        N  0.38322060  0.46538288  0.94857611    -0.58860
N768        N  0.41740429  0.47388611  0.81075616    -0.06420
N769        N  0.41191929  0.45090329  0.77944542    -0.60990
N770        N  0.43935729  0.47389042  0.83898468    -0.06020
N771        N  0.44938002  0.45087387  0.82785086    -0.58840
N772        N  0.37689812  0.48277278  0.88483675    -0.05700
N773        N  0.34563337  0.46540212  0.90046520    -0.61340
C774        C  0.34976599  0.45462441  0.94025187     0.95430
C775        C  0.43225709  0.43704719  0.79045594     0.95210
N776        N  0.43187924  0.56789584  0.75400477    -0.06930
N777        N  0.44590001  0.57632094  0.71525630    -0.59440
N778        N  0.36860987  0.53907721  0.82849985    -0.05050
N779        N  0.33593888  0.52688143  0.83673021    -0.60690
N780        N  0.38474262  0.57399160  0.82429956    -0.06960
N781        N  0.36274616  0.58611942  0.82966060    -0.59710
N782        N  0.41427453  0.53290419  0.75833527    -0.04690
N783        N  0.41629071  0.51692297  0.72305069    -0.60780
Mn784      Mn  0.39318214  0.50660899  0.81994926     1.18440
C785        C  0.43620600  0.54421067  0.69679074     0.97520
C786        C  0.33225550  0.55625225  0.83744107     0.98180
N787        N  0.50760393  0.53403637  0.87169669    -0.06980
N788        N  0.52086825  0.51870279  0.84677388    -0.63290
N789        N  0.48453372  0.57777647  0.94773993    -0.05780
N790        N  0.48280288  0.59314604  0.98391381    -0.63960
N791        N  0.46734392  0.54289676  0.95151197    -0.06480
N792        N  0.45336012  0.53378279  0.99013848    -0.63550
N793        N  0.52491369  0.56899630  0.86710417    -0.05380
N794        N  0.54989210  0.57765683  0.83865186    -0.64240
Mn795      Mn  0.45404095  0.50786302  0.89545662     1.10660
C796        C  0.54755360  0.54616788  0.82665251     0.98740
C797        C  0.46323418  0.56532502  0.01003273     0.98820
N798        N  0.45278685  0.63498051  0.86867338    -0.06490
N799        N  0.44225683  0.65785522  0.87830717    -0.61860
N800        N  0.51855513  0.62801823  0.82229423    -0.05810
N801        N  0.55047500  0.65302490  0.81787760    -0.58590
N802        N  0.49803020  0.63429615  0.79771289    -0.07120
N803        N  0.51626188  0.66604544  0.77901832    -0.61430
N804        N  0.47641738  0.63727797  0.89625920    -0.06110
N805        N  0.48247675  0.66254529  0.92538965    -0.58620
Mn806      Mn  0.44121390  0.60338150  0.80990023     1.20190
Mn807      Mn  0.50204259  0.60338333  0.88475417     1.10090
Cl808      Cl  0.44732853  0.55544538  0.85287256    -0.86590
C809        C  0.46040739  0.67465353  0.91402271     0.95750
C810        C  0.54934011  0.67713898  0.79129334     0.95540
C811        C  0.41697768  0.53213067  0.57879479    -0.12890
C812        C  0.44689175  0.53388527  0.56181317     0.04110
C813        C  0.47242178  0.53580689  0.59010884    -0.08180
C814        C  0.46884483  0.53915690  0.63486836    -0.08920
C815        C  0.43951240  0.53924485  0.65092829    -0.03470
C816        C  0.41297782  0.53477715  0.62277649     0.03340
N817        N  0.38250282  0.53455350  0.63792130     0.65850
H818        H  0.39655225  0.52985082  0.55773619     0.14750
H819        H  0.48863234  0.54137017  0.65709494     0.14460
N820        N  0.50123642  0.53355243  0.57386902     0.73550
O821        O  0.36999700  0.55076254  0.61677636    -0.39900
O822        O  0.36538062  0.51419595  0.66847170    -0.39840
O823        O  0.53101681  0.55499005  0.58704098    -0.40540
O824        O  0.49705744  0.51030570  0.54590537    -0.40610
C825        C  0.47224615  0.60023986  0.07732958    -0.12890
C826        C  0.45208191  0.56897079  0.05365473     0.04110
C827        C  0.42228312  0.54134962  0.07265433    -0.08180
C828        C  0.41513250  0.54388693  0.11603862    -0.08920
C829        C  0.43735131  0.57352326  0.14097714    -0.03470
C830        C  0.46520772  0.60298686  0.12094020     0.03340
N831        N  0.48700408  0.63516833  0.14472925     0.65850
H832        H  0.49436863  0.62208287  0.06226993     0.14750
H833        H  0.39365310  0.52127913  0.13109507     0.14460
N834        N  0.39955631  0.51007208  0.04879650     0.73550
O835        O  0.51708596  0.65593644  0.13204899    -0.39900
O836        O  0.47531728  0.64467929  0.17609617    -0.39840
O837        O  0.40084727  0.48157979  0.05414894    -0.40540
O838        O  0.37491302  0.50939795  0.02790653    -0.40610
C839        C  0.59900475  0.72763969  0.30448262    -0.12890
C840        C  0.59627397  0.69360052  0.30357466     0.04110
C841        C  0.62156410  0.68857503  0.32516732    -0.08180
C842        C  0.64487677  0.71540033  0.35296619    -0.08920
C843        C  0.64401816  0.74733003  0.35906532    -0.03470
C844        C  0.62255286  0.75486464  0.33209606     0.03340
N845        N  0.62365849  0.78911028  0.33257350     0.65850
H846        H  0.57972032  0.73143164  0.28756794     0.14750
H847        H  0.66281581  0.71062433  0.37173028     0.14460
N848        N  0.62093429  0.65472620  0.32347103     0.73550
O849        O  0.60240860  0.79391284  0.31043538    -0.39900
O850        O  0.64764391  0.81567090  0.35142661    -0.39840
O851        O  0.61124768  0.63611100  0.28940271    -0.40540
O852        O  0.63234460  0.64447655  0.35473795    -0.40610
C853        C  0.77441067  0.91878185  0.75083843    -0.12890
C854        C  0.76682836  0.88724445  0.77298839     0.04110
C855        C  0.75398036  0.85510692  0.74882397    -0.08180
C856        C  0.74396923  0.85431205  0.70549648    -0.08920
C857        C  0.74967443  0.88538894  0.68374243    -0.03470
C858        C  0.76772897  0.91854457  0.70612659     0.03340
N859        N  0.78098760  0.95221310  0.68417278     0.65850
H860        H  0.78633548  0.94390892  0.76816405     0.14750
H861        H  0.73268865  0.82939667  0.68834272     0.14460
N862        N  0.75249773  0.82347269  0.76679824     0.73550
O863        O  0.78018033  0.97799982  0.70266426    -0.39900
O864        O  0.80108160  0.95874989  0.65271807    -0.39840
O865        O  0.72712644  0.79325830  0.75876497    -0.40540
O866        O  0.77922914  0.82505732  0.78290352    -0.40610
C867        C  0.72855399  0.86265927  0.26535537    -0.12890
C868        C  0.76313555  0.88433167  0.27682002     0.04110
C869        C  0.78765394  0.90164126  0.24391255    -0.08180
C870        C  0.77628549  0.89804951  0.20059133    -0.08920
C871        C  0.74159984  0.87673186  0.18922902    -0.03470
C872        C  0.71732406  0.85890994  0.22206942     0.03340
N873        N  0.68125498  0.83854870  0.21260630     0.65850
H874        H  0.70991312  0.84936911  0.29069463     0.14750
H875        H  0.79479538  0.91126732  0.17511079     0.14460
N876        N  0.82390091  0.92136587  0.25324523     0.73550
O877        O  0.66196142  0.81271294  0.23660858    -0.39900
O878        O  0.66786008  0.84895944  0.18393078    -0.39840
O879        O  0.83632268  0.91378670  0.28583862    -0.40540
O880        O  0.84420959  0.94350419  0.22609173    -0.40610
C881        C  0.63547199  0.75107495  0.81971506    -0.12890
C882        C  0.62745555  0.75916732  0.86080798     0.04110
C883        C  0.59261996  0.74749481  0.86997612    -0.08180
C884        C  0.56711901  0.72709282  0.83964761    -0.08920
C885        C  0.57469770  0.71457056  0.80164634    -0.03470
C886        C  0.60953304  0.72835120  0.79022965     0.03340
N887        N  0.61879294  0.71791177  0.75025929     0.65850
H888        H  0.66205178  0.76060507  0.81172145     0.14750
H889        H  0.54060016  0.71607488  0.84934809     0.14460
N890        N  0.58202521  0.75214903  0.91187488     0.73550
O891        O  0.64977948  0.72808363  0.74182499    -0.39900
O892        O  0.59640225  0.70066465  0.72174525    -0.39840
O893        O  0.58941829  0.78289339  0.92490080    -0.40540
O894        O  0.56319082  0.72524672  0.93467736    -0.40610
C895        C  0.29142406  0.38875672  0.51187867    -0.12890
C896        C  0.26301543  0.36380335  0.48833746     0.04110
C897        C  0.26541568  0.36279244  0.44229573    -0.08180
C898        C  0.29432405  0.38844537  0.42119882    -0.08920
C899        C  0.32111530  0.41560253  0.44414891    -0.03470
C900        C  0.32081910  0.41463960  0.49026304     0.03340
N901        N  0.34976308  0.43977340  0.51535629     0.65850
H902        H  0.29012569  0.38910256  0.54689186     0.14750
H903        H  0.29464754  0.38842859  0.38608631     0.14460
N904        N  0.23792605  0.33723528  0.41577278     0.73550
O905        O  0.34546608  0.44944731  0.55232007    -0.39900
O906        O  0.37976255  0.44865797  0.50325147    -0.39840
O907        O  0.22799858  0.34744433  0.38298432    -0.40540
O908        O  0.22626435  0.30430089  0.42203820    -0.40610
C909        C  0.92315121  0.09427901  0.53500930    -0.12890
C910        C  0.94778976  0.08912858  0.51234570     0.04110
C911        C  0.94129851  0.05429950  0.50378647    -0.08180
C912        C  0.91119758  0.02574553  0.51927989    -0.08920
C913        C  0.88529573  0.02995759  0.54060945    -0.03470
C914        C  0.89171271  0.06504782  0.54876787     0.03340
N915        N  0.86773932  0.07153069  0.57229251     0.65850
H916        H  0.92897101  0.12118754  0.54334135     0.14750
H917        H  0.90807500  0.99946689  0.51332934     0.14460
N918        N  0.96452159  0.04697184  0.47910333     0.73550
O919        O  0.85378442  0.05371304  0.60596264    -0.39900
O920        O  0.86391792  0.09804433  0.56293628    -0.39840
O921        O  0.99655470  0.06637882  0.48248460    -0.40540
O922        O  0.95287068  0.01968660  0.45509255    -0.40610
C923        C  0.28939155  0.38247763  0.01913097    -0.12890
C924        C  0.25833715  0.38103947  0.00761055     0.04110
C925        C  0.25890595  0.40786696  0.98049867    -0.08180
C926        C  0.28969935  0.43274959  0.96140359    -0.08920
C927        C  0.32025683  0.43179254  0.96860981    -0.03470
C928        C  0.32040109  0.40731997  0.99957780     0.03340
N929        N  0.35057171  0.40464346  0.00850930     0.65850
H930        H  0.28905066  0.36165346  0.03942676     0.14750
H931        H  0.28942247  0.45223651  0.93922216     0.14460
N932        N  0.22788934  0.40847781  0.96957985     0.73550
O933        O  0.35771360  0.40085338  0.04712206    -0.39900
O934        O  0.36549854  0.39823923  0.97807632    -0.39840
O935        O  0.20472251  0.40029975  0.99746228    -0.40540
O936        O  0.22372312  0.41766942  0.93212771    -0.40610
C937        C  0.08109986  0.22434522  0.74254970    -0.12890
C938        C  0.11441119  0.24111331  0.72512768     0.04110
C939        C  0.14036386  0.23755330  0.74684315    -0.08180
C940        C  0.13186422  0.21535761  0.78309504    -0.08920
C941        C  0.09874873  0.19912717  0.80107058    -0.03470
C942        C  0.07272889  0.20269459  0.77941078     0.03340
N943        N  0.03772305  0.18393397  0.79346433     0.65850
H944        H  0.06069812  0.22622666  0.72574168     0.14750
H945        H  0.15229990  0.21331927  0.79957558     0.14460
N946        N  0.17555057  0.25719056  0.73376203     0.73550
O947        O  0.01870290  0.19784943  0.78876361    -0.39900
O948        O  0.02441877  0.15152943  0.80444354    -0.39840
O949        O  0.18884968  0.29015743  0.72573979    -0.40540
O950        O  0.19472964  0.24337112  0.73736310    -0.40610
C951        C  0.12179926  0.25944028  0.25192160    -0.12890
C952        C  0.13136660  0.24240464  0.22142311     0.04110
C953        C  0.12887485  0.20885882  0.23121420    -0.08180
C954        C  0.11641908  0.19325816  0.27182762    -0.08920
C955        C  0.10605261  0.21021524  0.30199023    -0.03470
C956        C  0.10935014  0.24386105  0.29193560     0.03340
N957        N  0.10278304  0.26411266  0.32318964     0.65850
H958        H  0.12263127  0.28449803  0.24390354     0.14750
H959        H  0.11578234  0.16842926  0.28040504     0.14460
N960        N  0.13794498  0.18997526  0.20022062     0.73550
O961        O  0.12451573  0.29659905  0.32817548    -0.39900
O962        O  0.07306642  0.25219131  0.33831156    -0.39840
O963        O  0.16521067  0.20634491  0.17880779    -0.40540
O964        O  0.12171036  0.15627408  0.19910316    -0.40610
C965        C  0.92574728  0.07619167  0.99634040    -0.12890
C966        C  0.94906515  0.08823063  0.03078015     0.04110
C967        C  0.93706606  0.07353231  0.07273537    -0.08180
C968        C  0.90290181  0.04637075  0.07830557    -0.08920
C969        C  0.88021911  0.03309940  0.04322273    -0.03470
C970        C  0.89213907  0.04857172  0.00166355     0.03340
N971        N  0.87169842  0.03456460  0.96333078     0.65850
H972        H  0.93420013  0.08674078  0.96408756     0.14750
H973        H  0.89468567  0.03401144  0.10982296     0.14460
N974        N  0.95917070  0.08474648  0.10993931     0.73550
O975        O  0.86394929  0.05466065  0.94175479    -0.39900
O976        O  0.87159945  0.00850528  0.94426158    -0.39840
O977        O  0.97093094  0.11616274  0.12401461    -0.40540
O978        O  0.96081366  0.06166670  0.13378162    -0.40610
C979        C  0.76604139  0.01939868  0.55915039    -0.12890
C980        C  0.77781767  0.03653309  0.51866383     0.04110
C981        C  0.78658011  0.07322301  0.51632646    -0.08180
C982        C  0.78441684  0.09113160  0.55439245    -0.08920
C983        C  0.77245603  0.07362188  0.59462155    -0.03470
C984        C  0.76364294  0.03713801  0.59675251     0.03340
N985        N  0.75250939  0.01755862  0.63679303     0.65850
H986        H  0.75817739  0.99125717  0.56146210     0.14750
H987        H  0.79106244  0.11897796  0.55234178     0.14460
N988        N  0.79645943  0.09256573  0.47592077     0.73550
O989        O  0.73365412  0.98406407  0.63628084    -0.39900
O990        O  0.76369826  0.03303811  0.67272795    -0.39840
O991        O  0.79008967  0.07637913  0.44009490    -0.40540
O992        O  0.80980622  0.12615914  0.47571854    -0.40610
C993        C  0.96506043  0.26463901  0.54913673    -0.12890
C994        C  0.98149714  0.25045775  0.57482430     0.04110
C995        C  0.96478567  0.22998200  0.61187328    -0.08180
C996        C  0.93109061  0.22069036  0.61907125    -0.08920
C997        C  0.91371040  0.23297984  0.59226214    -0.03470
C998        C  0.93132063  0.25655732  0.55783200     0.03340
N999        N  0.91544158  0.27163381  0.53076978     0.65850
H1000       H  0.97788726  0.28061728  0.52098288     0.14750
H1001       H  0.91879596  0.20413592  0.64703200     0.14460
N1002       N  0.98078134  0.21687330  0.64178071     0.73550
O1003       O  0.93212480  0.30401448  0.51962697    -0.39900
O1004       O  0.88699443  0.25165305  0.51276297    -0.39840
O1005       O  0.00562560  0.23861673  0.66483276    -0.40540
O1006       O  0.96647882  0.18397312  0.65061520    -0.40610
C1007       C  0.78730297  0.09206092  0.06042727    -0.12890
C1008       C  0.77861207  0.07640025  0.10215174     0.04110
C1009       C  0.77090515  0.04015786  0.10563334    -0.08180
C1010       C  0.77120251  0.02115620  0.06802602    -0.08920
C1011       C  0.78010419  0.03672803  0.02636083    -0.03470
C1012       C  0.78783305  0.07282903  0.02285459     0.03340
N1013       N  0.79396044  0.08963015  0.98112710     0.65850
H1014       H  0.79312732  0.11949484  0.05690015     0.14750
H1015       H  0.76287582  0.99296717  0.07118128     0.14460
N1016       N  0.76319699  0.02195020  0.14680039     0.73550
O1017       O  0.78128157  0.10940968  0.97175712    -0.39900
O1018       O  0.81041389  0.08331664  0.95263475    -0.39840
O1019       O  0.74878914  0.02977209  0.17654360    -0.40540
O1020       O  0.76942702  0.99654346  0.15290801    -0.40610
C1021       C  0.93959638  0.23047971  0.12835331    -0.12890
C1022       C  0.92376807  0.24593271  0.10395120     0.04110
C1023       C  0.94163405  0.26862233  0.06891546    -0.08180
C1024       C  0.97234984  0.27039032  0.05520127    -0.08920
C1025       C  0.98630936  0.25196133  0.07767397    -0.03470
C1026       C  0.97029320  0.23311088  0.11589078     0.03340
N1027       N  0.98247558  0.21298988  0.14013776     0.65850
H1028       H  0.92721781  0.21420662  0.15648550     0.14750
H1029       H  0.98550103  0.28631694  0.02716131     0.14460
N1030       N  0.92990451  0.29067443  0.04809986     0.73550
O1031       O  0.98892959  0.21919989  0.18003848    -0.39900
O1032       O  0.97877661  0.18413533  0.12461385    -0.39840
O1033       O  0.92350639  0.31115029  0.07077214    -0.40540
O1034       O  0.93348440  0.29582152  0.00774286    -0.40610
C1035       C  0.74427526  0.21055765  0.93764215    -0.12890
C1036       C  0.76350201  0.20394287  0.96874976     0.04110
C1037       C  0.78592019  0.19145100  0.95472763    -0.08180
C1038       C  0.78650595  0.18349952  0.91053051    -0.08920
C1039       C  0.76624386  0.18873402  0.87960853    -0.03470
C1040       C  0.74656967  0.20484586  0.89294109     0.03340
N1041       N  0.73118520  0.21817689  0.86193413     0.65850
H1042       H  0.72879570  0.22213898  0.94826139     0.14750
H1043       H  0.80234176  0.17222328  0.90028657     0.14460
N1044       N  0.80767021  0.18589347  0.98473735     0.73550
O1045       O  0.71078867  0.22863563  0.87465172    -0.39900
O1046       O  0.74262283  0.22597888  0.82386553    -0.39840
O1047       O  0.79761329  0.17468770  0.02258493    -0.40540
O1048       O  0.83571225  0.18880653  0.97215578    -0.40610
C1049       C  0.73913196  0.19909761  0.39564787    -0.12890
C1050       C  0.76362303  0.18937378  0.38275502     0.04110
C1051       C  0.78714939  0.19007695  0.41412849    -0.08180
C1052       C  0.78525242  0.19981753  0.45720559    -0.08920
C1053       C  0.76044619  0.20892092  0.47041198    -0.03470
C1054       C  0.73780939  0.20988908  0.43865750     0.03340
N1055       N  0.71521949  0.22400848  0.44842879     0.65850
H1056       H  0.72195319  0.19994757  0.37135665     0.14750
H1057       H  0.80278925  0.19916777  0.48111794     0.14460
N1058       N  0.81224632  0.17963714  0.40342392     0.73550
O1059       O  0.68964503  0.21654906  0.42440368    -0.39900
O1060       O  0.72353856  0.24816882  0.47663067    -0.39840
O1061       O  0.84125490  0.19469722  0.42168371    -0.40540
O1062       O  0.80414740  0.15251719  0.38006475    -0.40610
C1063       C  0.55328540  0.04212599  0.73040707    -0.12890
C1064       C  0.56800978  0.03779769  0.76911170     0.04110
C1065       C  0.60397102  0.05567704  0.77260233    -0.08180
C1066       C  0.62402319  0.07659778  0.73806342    -0.08920
C1067       C  0.60982110  0.07980369  0.69838199    -0.03470
C1068       C  0.57357393  0.06248878  0.69468749     0.03340
N1069       N  0.55691720  0.06376811  0.65507717     0.65850
H1070       H  0.52565562  0.02851236  0.72756231     0.14750
H1071       H  0.65159512  0.08957025  0.74189638     0.14460
N1072       N  0.62087159  0.05337340  0.81114722     0.73550
O1073       O  0.52601784  0.04100498  0.64793643    -0.39900
O1074       O  0.57256384  0.08786200  0.62729244    -0.39840
O1075       O  0.61807823  0.02375486  0.82233122    -0.40540
O1076       O  0.64401794  0.08158679  0.82837279    -0.40610
C1077       C  0.61485349  0.85987413  0.88409114    -0.12890
C1078       C  0.61605054  0.87522212  0.92507819     0.04110
C1079       C  0.59265009  0.88787776  0.93289068    -0.08180
C1080       C  0.56929410  0.88481339  0.89997962    -0.08920
C1081       C  0.56866359  0.87071649  0.85842606    -0.03470
C1082       C  0.59191177  0.85780272  0.85043926     0.03340
N1083       N  0.59342490  0.84352601  0.80873828     0.65850
H1084       H  0.63235479  0.84968344  0.87819365     0.14750
H1085       H  0.55185888  0.89498787  0.90649561     0.14460
N1086       N  0.59110765  0.90285762  0.97409486     0.73550
O1087       O  0.61883030  0.83972546  0.79898219    -0.39900
O1088       O  0.56889158  0.83315900  0.78209588    -0.39840
O1089       O  0.61780751  0.92107431  0.99632248    -0.40540
O1090       O  0.56353300  0.90137834  0.98616141    -0.40610
C1091       C  0.42689998  0.73856891  0.93343722    -0.12890
C1092       C  0.45749348  0.77124459  0.93630387     0.04110
C1093       C  0.48811849  0.77038407  0.94446370    -0.08180
C1094       C  0.48847028  0.73764604  0.94178226    -0.08920
C1095       C  0.45839230  0.70554058  0.93287039    -0.03470
C1096       C  0.42681585  0.70574522  0.93220115     0.03340
N1097       N  0.39470611  0.67309786  0.92784464     0.65850
H1098       H  0.40299880  0.73884684  0.92883688     0.14750
H1099       H  0.51262435  0.73771450  0.94361825     0.14460
N1100       N  0.51935281  0.80267983  0.95205984     0.73550
O1101       O  0.36887087  0.67350806  0.91178152    -0.39900
O1102       O  0.39109520  0.64434316  0.94384594    -0.39840
O1103       O  0.52079330  0.82414487  0.98092336    -0.40540
O1104       O  0.54649044  0.80749850  0.93425736    -0.40610
C1105       C  0.58626098  0.07178009  0.20416548    -0.12890
C1106       C  0.61753939  0.07189554  0.19988657     0.04110
C1107       C  0.62562064  0.05298375  0.23192205    -0.08180
C1108       C  0.60267276  0.03432505  0.26534793    -0.08920
C1109       C  0.57129235  0.03371375  0.26940517    -0.03470
C1110       C  0.56321633  0.05286937  0.23809946     0.03340
N1111       N  0.53009882  0.04979494  0.23695489     0.65850
H1112       H  0.57890814  0.08510095  0.17994632     0.14750
H1113       H  0.60989797  0.02035358  0.28887674     0.14460
N1114       N  0.65774796  0.05332125  0.23257844     0.73550
O1115       O  0.52707666  0.07752199  0.23478909    -0.39900
O1116       O  0.50507953  0.02002914  0.22675815    -0.39840
O1117       O  0.68377320  0.07998137  0.24818934    -0.40540
O1118       O  0.65851674  0.02464494  0.22641160    -0.40610
C1119       C  0.62564779  0.87367674  0.37136377    -0.12890
C1120       C  0.61743457  0.87165127  0.41570205     0.04110
C1121       C  0.58460321  0.86623894  0.42678074    -0.08180
C1122       C  0.56164074  0.86333720  0.39343064    -0.08920
C1123       C  0.56934384  0.86528818  0.34904683    -0.03470
C1124       C  0.60227999  0.87063378  0.33786912     0.03340
N1125       N  0.61261650  0.87381036  0.29321837     0.65850
H1126       H  0.65090499  0.87805060  0.36280869     0.14750
H1127       H  0.53761280  0.86256237  0.40264780     0.14460
N1128       N  0.57473034  0.86543594  0.47135855     0.73550
O1129       O  0.64373117  0.88580889  0.28376775    -0.39900
O1130       O  0.59060811  0.86227238  0.26310428    -0.39840
O1131       O  0.59675838  0.88250938  0.50027312    -0.40540
O1132       O  0.54344581  0.85040132  0.48139067    -0.40610
C1133       C  0.47679203  0.93283116  0.57316449    -0.12890
C1134       C  0.45315388  0.91198576  0.54105752     0.04110
C1135       C  0.42380725  0.87953573  0.55308266    -0.08180
C1136       C  0.41782619  0.87081975  0.59744450    -0.08920
C1137       C  0.44120905  0.89206065  0.62951313    -0.03470
C1138       C  0.47142379  0.92326750  0.61725364     0.03340
N1139       N  0.49691060  0.94549086  0.64865784     0.65850
H1140       H  0.49972979  0.95691223  0.56370084     0.14750
H1141       H  0.39504884  0.84670853  0.60721474     0.14460
N1142       N  0.40036216  0.85473330  0.52141501     0.73550
O1143       O  0.52798999  0.96299822  0.63791966    -0.39900
O1144       O  0.48849434  0.94962360  0.68626882    -0.39840
O1145       O  0.40952154  0.85458448  0.48287101    -0.40540
O1146       O  0.37090017  0.83089346  0.53273528    -0.40610
C1147       C  0.42479600  0.86915707  0.09717780    -0.12890
C1148       C  0.44354444  0.89410629  0.12959759     0.04110
C1149       C  0.46829194  0.92924172  0.11714823    -0.08180
C1150       C  0.47120471  0.93894849  0.07295985    -0.08920
C1151       C  0.45185519  0.91425216  0.04065995    -0.03470
C1152       C  0.42912377  0.87840645  0.05281460     0.03340
N1153       N  0.41039883  0.85104123  0.02097302     0.65850
H1154       H  0.40613697  0.84228423  0.10663647     0.14750
H1155       H  0.48993161  0.96571642  0.06326559     0.14460
N1156       N  0.49098542  0.95522850  0.14833513     0.73550
O1157       O  0.40060261  0.81870107  0.02968452    -0.39900
O1158       O  0.40192020  0.85858608  0.98500674    -0.39840
O1159       O  0.49651403  0.94568758  0.18486754    -0.40540
O1160       O  0.50716210  0.98795434  0.13853486    -0.40610
C1161       C  0.49212762  0.77115025  0.42930332    -0.12890
C1162       C  0.46049195  0.77051063  0.43146950     0.04110
C1163       C  0.43037430  0.73739611  0.43610461    -0.08180
C1164       C  0.43233735  0.70581742  0.43606455    -0.08920
C1165       C  0.46364371  0.70595762  0.43099375    -0.03470
C1166       C  0.49415521  0.73933902  0.42920066     0.03340
N1167       N  0.52709050  0.74163820  0.42521416     0.65850
H1168       H  0.51517967  0.79627201  0.42446378     0.14750
H1169       H  0.40868643  0.68073993  0.43837230     0.14460
N1170       N  0.39730857  0.73530337  0.43769108     0.73550
O1171       O  0.54830724  0.76281891  0.39807527    -0.39900
O1172       O  0.53724228  0.72782299  0.45384197    -0.39840
O1173       O  0.37193218  0.71026958  0.41860053    -0.40540
O1174       O  0.39318862  0.75809889  0.45877511    -0.40610
C1175       C  0.29625370  0.23657483  0.56140723    -0.12890
C1176       C  0.31724200  0.23092082  0.53316250     0.04110
C1177       C  0.31137505  0.23064279  0.48768749    -0.08180
C1178       C  0.28159198  0.23136275  0.47278991    -0.08920
C1179       C  0.25901972  0.23382791  0.50217388    -0.03470
C1180       C  0.26823659  0.23907050  0.54683499     0.03340
N1181       N  0.24888856  0.24608005  0.57854408     0.65850
H1182       H  0.30185317  0.23949481  0.59587476     0.14750
H1183       H  0.27506277  0.22797961  0.43864045     0.14460
N1184       N  0.33411450  0.22858759  0.45646119     0.73550
O1185       O  0.24155211  0.22976778  0.61433774    -0.39900
O1186       O  0.24242321  0.27129311  0.57283018    -0.39840
O1187       O  0.35219584  0.21436325  0.46592927    -0.40540
O1188       O  0.33530879  0.23997963  0.41839820    -0.40610
C1189       C  0.43505966  0.37881608  0.70121607    -0.12890
C1190       C  0.43704103  0.35231839  0.72562374     0.04110
C1191       C  0.43837967  0.35416121  0.77126769    -0.08180
C1192       C  0.43683068  0.38241683  0.79146345    -0.08920
C1193       C  0.43354398  0.40821848  0.76711131    -0.03470
C1194       C  0.43256304  0.40641140  0.72152721     0.03340
N1195       N  0.42924897  0.43224437  0.69541495     0.65850
H1196       H  0.43362759  0.37704303  0.66615881     0.14750
H1197       H  0.43802082  0.38419843  0.82651064     0.14460
N1198       N  0.44194954  0.32824227  0.79733724     0.73550
O1199       O  0.45169222  0.44966297  0.66737567    -0.39900
O1200       O  0.40074765  0.43153702  0.69321427    -0.39840
O1201       O  0.46052459  0.31542240  0.78480605    -0.40540
O1202       O  0.42974118  0.32113673  0.83509896    -0.40610
C1203       C  0.47397992  0.05285120  0.70541484    -0.12890
C1204       C  0.44543160  0.01936433  0.70085288     0.04110
C1205       C  0.42680818  0.01156813  0.66134935    -0.08180
C1206       C  0.43693567  0.03795329  0.62863145    -0.08920
C1207       C  0.46282379  0.07348944  0.63573158    -0.03470
C1208       C  0.48150508  0.08055384  0.67571351     0.03340
N1209       N  0.50472820  0.11596415  0.69046438     0.65850
H1210       H  0.48884335  0.05855393  0.73501743     0.14750
H1211       H  0.42075731  0.03207832  0.60013385     0.14460
N1212       N  0.39554760  0.97872985  0.65539007     0.73550
O1213       O  0.51640727  0.12113346  0.72870669    -0.39900
O1214       O  0.51118992  0.14251173  0.66732373    -0.39840
O1215       O  0.37119154  0.97028701  0.68149456    -0.40540
O1216       O  0.38954358  0.96272743  0.61953116    -0.40610
C1217       C  0.58054102  0.20260898  0.77697952    -0.12890
C1218       C  0.56702575  0.19631133  0.73459292     0.04110
C1219       C  0.58116950  0.18246704  0.70391165    -0.08180
C1220       C  0.60246672  0.16923959  0.71805600    -0.08920
C1221       C  0.61943323  0.17958550  0.75795064    -0.03470
C1222       C  0.60866888  0.19721301  0.78787053     0.03340
N1223       N  0.62680762  0.21116839  0.82796746     0.65850
H1224       H  0.57104715  0.21434720  0.80044100     0.14750
H1225       H  0.61173844  0.15766808  0.69406315     0.14460
N1226       N  0.57740670  0.18463043  0.65785258     0.73550
O1227       O  0.62557700  0.23656015  0.84696995    -0.39900
O1228       O  0.64356777  0.19771176  0.84512330    -0.39840
O1229       O  0.58845295  0.21490643  0.64048725    -0.40540
O1230       O  0.57294114  0.15873298  0.63411912    -0.40610
C1231       C  0.28150700  0.22554488  0.96585791    -0.12890
C1232       C  0.26051490  0.23249052  0.99310871     0.04110
C1233       C  0.27151203  0.24377364  0.03637639    -0.08180
C1234       C  0.29972532  0.24262389  0.05291214    -0.08920
C1235       C  0.31911005  0.23275184  0.02724950    -0.03470
C1236       C  0.31183801  0.22694654  0.98215468     0.03340
N1237       N  0.33412704  0.22200171  0.95300662     0.65850
H1238       H  0.27365939  0.21789276  0.93255196     0.14750
H1239       H  0.30645103  0.24928035  0.08676855     0.14460
N1240       N  0.25323975  0.25486311  0.06489345     0.73550
O1241       O  0.32283250  0.20661901  0.91703981    -0.39900
O1242       O  0.36605239  0.23837011  0.95939367    -0.39840
O1243       O  0.24709082  0.24355554  0.10340313    -0.40540
O1244       O  0.24562915  0.27817464  0.05265920    -0.40610
C1245       C  0.43483474  0.38648152  0.29363387    -0.12890
C1246       C  0.42231060  0.40469003  0.26808611     0.04110
C1247       C  0.40847076  0.39192709  0.22663684    -0.08180
C1248       C  0.40733042  0.36079023  0.21169777    -0.08920
C1249       C  0.42041227  0.34286517  0.23661900    -0.03470
C1250       C  0.43390628  0.35516243  0.27854191     0.03340
N1251       N  0.44774218  0.33744386  0.30523461     0.65850
H1252       H  0.44554192  0.39697866  0.32531843     0.14750
H1253       H  0.39763047  0.35131598  0.17932181     0.14460
N1254       N  0.39750785  0.41122053  0.19832451     0.73550
O1255       O  0.46766751  0.35385082  0.33638528    -0.39900
O1256       O  0.43844886  0.30479174  0.29999928    -0.39840
O1257       O  0.41494192  0.44477373  0.19522641    -0.40540
O1258       O  0.37329782  0.39444642  0.17177076    -0.40610
C1259       C  0.45169226  0.05030872  0.13924595    -0.12890
C1260       C  0.45590685  0.08267655  0.15546514     0.04110
C1261       C  0.44941449  0.08408364  0.20046554    -0.08180
C1262       C  0.44765734  0.05755780  0.22816113    -0.08920
C1263       C  0.44207343  0.02483710  0.21228144    -0.03470
C1264       C  0.44205522  0.02034436  0.16643548     0.03340
N1265       N  0.43069462  0.98615851  0.14629418     0.65850
H1266       H  0.45284583  0.04738075  0.10453081     0.14750
H1267       H  0.44479579  0.06016599  0.26260815     0.14460
N1268       N  0.43564354  0.10560330  0.21727580     0.73550
O1269       O  0.41783388  0.98018732  0.10865579    -0.39900
O1270       O  0.43418229  0.96207336  0.16500136    -0.39840
O1271       O  0.40762465  0.10084883  0.20168500    -0.40540
O1272       O  0.44221860  0.11607682  0.25614138    -0.40610
C1273       C  0.40385104  0.19711102  0.88134520    -0.12890
C1274       C  0.42924973  0.21318489  0.84975193     0.04110
C1275       C  0.46404823  0.23237837  0.86286841    -0.08180
C1276       C  0.47233783  0.23554856  0.90730174    -0.08920
C1277       C  0.44701168  0.21984999  0.93898011    -0.03470
C1278       C  0.41211003  0.19945668  0.92594730     0.03340
N1279       N  0.38505582  0.17972470  0.95676766     0.65850
H1280       H  0.37749991  0.18114816  0.87081024     0.14750
H1281       H  0.49880090  0.25152821  0.91742835     0.14460
N1282       N  0.49123100  0.24922152  0.83173969     0.73550
O1283       O  0.35422224  0.16319281  0.94428920    -0.39900
O1284       O  0.39173397  0.17526397  0.99533401    -0.39840
O1285       O  0.48647071  0.26124974  0.79653132    -0.40540
O1286       O  0.52101011  0.25489032  0.84094291    -0.40610
C1287       C  0.39948538  0.18322399  0.37899687    -0.12890
C1288       C  0.42315503  0.20193407  0.34632257     0.04110
C1289       C  0.45799906  0.22433492  0.35762264    -0.08180
C1290       C  0.46804507  0.22753041  0.40145916    -0.08920
C1291       C  0.44439097  0.20903435  0.43422193    -0.03470
C1292       C  0.40951458  0.18617368  0.42295158     0.03340
N1293       N  0.38418971  0.16531235  0.45513761     0.65850
H1294       H  0.37317302  0.16518443  0.36981872     0.14750
H1295       H  0.49435876  0.24585320  0.41039307     0.14460
N1296       N  0.48332723  0.24455362  0.32534707     0.73550
O1297       O  0.35274528  0.14939855  0.44537524    -0.39900
O1298       O  0.39296588  0.15978851  0.49207435    -0.39840
O1299       O  0.47524799  0.25545346  0.29155896    -0.40540
O1300       O  0.51453059  0.25447886  0.33238688    -0.40610
C1301       C  0.57226158  0.18907178  0.27249959    -0.12890
C1302       C  0.55603307  0.18143510  0.23166879     0.04110
C1303       C  0.56649333  0.16512704  0.20001627    -0.08180
C1304       C  0.59329898  0.15812413  0.20894856    -0.08920
C1305       C  0.61209131  0.16906187  0.24775416    -0.03470
C1306       C  0.60066621  0.18357150  0.28088704     0.03340
N1307       N  0.61829945  0.19417427  0.32200350     0.65850
H1308       H  0.56395523  0.20117959  0.29697175     0.14750
H1309       H  0.60255841  0.14841679  0.18273213     0.14460
N1310       N  0.55244707  0.15838433  0.15703887     0.73550
O1311       O  0.61165526  0.21236528  0.34841728    -0.39900
O1312       O  0.63866209  0.18318721  0.33362288    -0.39840
O1313       O  0.56007207  0.18438260  0.13183238    -0.40540
O1314       O  0.54106021  0.12758249  0.14103604    -0.40610
C1315       C  0.29838959  0.90973832  0.51899448    -0.12890
C1316       C  0.26876181  0.90803844  0.50087663     0.04110
C1317       C  0.26597382  0.90720154  0.45461434    -0.08180
C1318       C  0.29149556  0.90701442  0.42866284    -0.08920
C1319       C  0.32078803  0.90833506  0.44640033    -0.03470
C1320       C  0.32434662  0.90959646  0.49251394     0.03340
N1321       N  0.35252430  0.90795917  0.51310941     0.65850
H1322       H  0.30021131  0.90873847  0.55392006     0.14750
H1323       H  0.28871696  0.90674416  0.39372787     0.14460
N1324       N  0.23699524  0.90613034  0.43288911     0.73550
O1325       O  0.35930347  0.91613955  0.55254235    -0.39900
O1326       O  0.36752210  0.89354301  0.49410678    -0.39840
O1327       O  0.22712008  0.92809580  0.44287334    -0.40540
O1328       O  0.22384885  0.88621206  0.40029449    -0.40610
C1329       C  0.29257842  0.03947052  0.52488830    -0.12890
C1330       C  0.26362918  0.04337261  0.51570743     0.04110
C1331       C  0.26292640  0.07363742  0.53225621    -0.08180
C1332       C  0.28749611  0.09547029  0.56305033    -0.08920
C1333       C  0.31403082  0.08908135  0.57699634    -0.03470
C1334       C  0.31831400  0.06262383  0.55456233     0.03340
N1335       N  0.34806004  0.05865425  0.56170305     0.65850
H1336       H  0.29385668  0.01685090  0.51156492     0.14750
H1337       H  0.28476642  0.11680351  0.57778494     0.14460
N1338       N  0.23457868  0.07956968  0.52224498     0.73550
O1339       O  0.34528799  0.02792869  0.56255038    -0.39900
O1340       O  0.37750237  0.08553543  0.55855160    -0.39840
O1341       O  0.22573911  0.09596747  0.54860952    -0.40540
O1342       O  0.21813166  0.06833465  0.48712114    -0.40610
C1343       C  0.96627009  0.91374757  0.46805475    -0.12890
C1344       C  0.96797953  0.89346870  0.50272951     0.04110
C1345       C  0.93786319  0.87105253  0.52594809    -0.08180
C1346       C  0.90696368  0.86971391  0.51404931    -0.08920
C1347       C  0.90532169  0.89054568  0.48004899    -0.03470
C1348       C  0.93529752  0.91261928  0.45620150     0.03340
N1349       N  0.93452864  0.93224576  0.41863576     0.65850
H1350       H  0.98912548  0.92978948  0.44929203     0.14750
H1351       H  0.88400036  0.85260981  0.53211224     0.14460
N1352       N  0.93764027  0.84820137  0.56018794     0.73550
O1353       O  0.96137086  0.95981942  0.40674852    -0.39900
O1354       O  0.90871324  0.91950757  0.39383061    -0.39840
O1355       O  0.95746974  0.86128448  0.59231713    -0.40540
O1356       O  0.91360379  0.81635644  0.56222933    -0.40610
C1357       C  0.14532628  0.06120498  0.60841205    -0.12890
C1358       C  0.11489707  0.02852891  0.60590198     0.04110
C1359       C  0.08360997  0.02900671  0.59972266    -0.08180
C1360       C  0.08368941  0.06171037  0.59607303    -0.08920
C1361       C  0.11420855  0.09439935  0.59818498    -0.03470
C1362       C  0.14544834  0.09383072  0.60416415     0.03340
N1363       N  0.17780628  0.12592621  0.60501403     0.65850
H1364       H  0.16954743  0.06154906  0.61262322     0.14750
H1365       H  0.05953773  0.06140472  0.59124901     0.14460
N1366       N  0.05149033  0.99675297  0.59609518     0.73550
O1367       O  0.19661074  0.13333110  0.63827607    -0.39900
O1368       O  0.19079435  0.14169642  0.56988052    -0.39840
O1369       O  0.03832383  0.97788487  0.62931647    -0.40540
O1370       O  0.03334349  0.99111494  0.56246778    -0.40610
C1371       C  0.25837676  0.89381999  0.95368359    -0.12890
C1372       C  0.26311117  0.89930498  0.99909385     0.04110
C1373       C  0.29628720  0.90965276  0.01593136    -0.08180
C1374       C  0.32285155  0.91401663  0.98683354    -0.08920
C1375       C  0.31706035  0.90716809  0.94172990    -0.03470
C1376       C  0.28417987  0.89726820  0.92545842     0.03340
N1377       N  0.27653872  0.89192862  0.87993566     0.65850
H1378       H  0.23394045  0.88708325  0.93892376     0.14750
H1379       H  0.34804031  0.92153820  0.99971820     0.14460
N1380       N  0.30337043  0.91442330  0.06175935     0.73550
O1381       O  0.24878272  0.86578074  0.86710497    -0.39900
O1382       O  0.29443866  0.91628888  0.85338333    -0.39840
O1383       O  0.27989591  0.89791243  0.08894540    -0.40540
O1384       O  0.33380229  0.93249000  0.07529868    -0.40610
C1385       C  0.28580780  0.02901581  0.02914274    -0.12890
C1386       C  0.26296320  0.03792434  0.00826604     0.04110
C1387       C  0.26677581  0.07235100  0.01546665    -0.08180
C1388       C  0.29031959  0.09474028  0.04719402    -0.08920
C1389       C  0.30988191  0.08371377  0.07221763    -0.03470
C1390       C  0.30855651  0.05101328  0.06147525     0.03340
N1391       N  0.32724562  0.03779435  0.08604146     0.65850
H1392       H  0.28254649  0.00243378  0.02490913     0.14750
H1393       H  0.29210108  0.12033832  0.05401578     0.14460
N1394       N  0.24504051  0.08376303  0.99364765     0.73550
O1395       O  0.31127361  0.01006031  0.10881056    -0.39900
O1396       O  0.35865474  0.04962645  0.07874370    -0.39840
O1397       O  0.22218009  0.06351427  0.96718139    -0.40540
O1398       O  0.24989991  0.11510291  0.99884460    -0.40610
C1399       C  0.08912426  0.85521954  0.76268223    -0.12890
C1400       C  0.12197510  0.87134227  0.74428703     0.04110
C1401       C  0.14953279  0.89917642  0.76670678    -0.08180
C1402       C  0.14276797  0.91338162  0.80352848    -0.08920
C1403       C  0.10956106  0.89861206  0.82075463    -0.03470
C1404       C  0.08226954  0.86934898  0.79952195     0.03340
N1405       N  0.04741762  0.85454462  0.81357973     0.65850
H1406       H  0.06775479  0.83371240  0.74571002     0.14750
H1407       H  0.16418288  0.93491902  0.82034181     0.14460
N1408       N  0.18435787  0.91298073  0.75293215     0.73550
O1409       O  0.03505681  0.87492299  0.82086863    -0.39900
O1410       O  0.02752320  0.82125632  0.81172277    -0.39840
O1411       O  0.20603186  0.94540148  0.75911688    -0.40540
O1412       O  0.19457613  0.89182619  0.74023767    -0.40610
C1413       C  0.09661524  0.86028996  0.31233554    -0.12890
C1414       C  0.10905552  0.89640846  0.32300188     0.04110
C1415       C  0.12747926  0.92344748  0.29244015    -0.08180
C1416       C  0.13393373  0.91320900  0.25214096    -0.08920
C1417       C  0.12158697  0.87715077  0.24146086    -0.03470
C1418       C  0.10241084  0.85011004  0.27161718     0.03340
N1419       N  0.08914537  0.81271481  0.26180740     0.65850
H1420       H  0.08344608  0.83994675  0.33669624     0.14750
H1421       H  0.14705318  0.93344430  0.22766358     0.14460
N1422       N  0.13837421  0.96074047  0.30057691     0.73550
O1423       O  0.06672376  0.78902814  0.28570521    -0.39900
O1424       O  0.10143949  0.80301814  0.23130973    -0.39840
O1425       O  0.13340094  0.97118055  0.33664618    -0.40540
O1426       O  0.15071905  0.98325906  0.27027929    -0.40610
C1427       C  0.93483779  0.86466322  0.01128947    -0.12890
C1428       C  0.96501008  0.89492350  0.99823152     0.04110
C1429       C  0.96283209  0.92183435  0.97385765    -0.08180
C1430       C  0.93024642  0.91839976  0.96582537    -0.08920
C1431       C  0.89999949  0.88801382  0.97895160    -0.03470
C1432       C  0.90259165  0.86079967  0.00144930     0.03340
N1433       N  0.87275262  0.82875159  0.01400889     0.65850
H1434       H  0.93632470  0.84344058  0.02863184     0.14750
H1435       H  0.92833151  0.93898405  0.94762946     0.14460
N1436       N  0.99282083  0.95227437  0.95654061     0.73550
O1437       O  0.86552505  0.79974159  0.99541537    -0.39900
O1438       O  0.85330328  0.82943513  0.04297569    -0.39840
O1439       O  0.01982119  0.95085311  0.94899572    -0.40540
O1440       O  0.99138635  0.97973818  0.94478399    -0.40610
C1441       C  0.08699486  0.06401006  0.09789815    -0.12890
C1442       C  0.11786371  0.09586784  0.10368260     0.04110
C1443       C  0.14844266  0.09418516  0.11025379    -0.08180
C1444       C  0.14739789  0.06097727  0.10996102    -0.08920
C1445       C  0.11662260  0.02916850  0.10349564    -0.03470
C1446       C  0.08606052  0.03090115  0.09675242     0.03340
N1447       N  0.05431219  0.99992235  0.08561628     0.65850
H1448       H  0.06355568  0.06488822  0.09163334     0.14750
H1449       H  0.17090361  0.06007083  0.11547912     0.14460
N1450       N  0.18068765  0.12565277  0.11801972     0.73550
O1451       O  0.02725616  0.99381629  0.10504020    -0.39900
O1452       O  0.05200544  0.98358945  0.05072039    -0.39840
O1453       O  0.18357346  0.14669431  0.14828437    -0.40540
O1454       O  0.20733557  0.12937864  0.09957306    -0.40610
C1455       C  0.73519440  0.71113088  0.66077833    -0.12890
C1456       C  0.76180011  0.70304831  0.65601291     0.04110
C1457       C  0.78449964  0.71855500  0.62058928    -0.08180
C1458       C  0.78046984  0.74234217  0.59223504    -0.08920
C1459       C  0.75367552  0.75041418  0.59706147    -0.03470
C1460       C  0.73085527  0.73429051  0.63228433     0.03340
N1461       N  0.70260661  0.74044725  0.63970913     0.65850
H1462       H  0.71739496  0.69933922  0.68731955     0.14750
H1463       H  0.79771934  0.75353767  0.56509647     0.14460
N1464       N  0.81002738  0.70854568  0.61075811     0.73550
O1465       O  0.67280230  0.71419181  0.64288519    -0.39900
O1466       O  0.70823248  0.77060045  0.65301459    -0.39840
O1467       O  0.80182191  0.67593977  0.60870189    -0.40540
O1468       O  0.83870974  0.73154347  0.59617226    -0.40610
C1469       C  0.93606725  0.71597556  0.64957308    -0.12890
C1470       C  0.91541357  0.69091921  0.61831419     0.04110
C1471       C  0.93044098  0.68784543  0.57951738    -0.08180
C1472       C  0.96459607  0.71244610  0.57097275    -0.08920
C1473       C  0.98401570  0.73980257  0.60041328    -0.03470
C1474       C  0.97049614  0.73955348  0.64183459     0.03340
N1475       N  0.99095251  0.76331246  0.67598390     0.65850
H1476       H  0.92562179  0.71690044  0.68080185     0.14750
H1477       H  0.97510133  0.71173781  0.53969220     0.14460
N1478       N  0.91135422  0.66113648  0.54761521     0.73550
O1479       O  0.97824762  0.77691247  0.70107983    -0.39900
O1480       O  0.02005405  0.76685715  0.68476314    -0.39840
O1481       O  0.88568037  0.66048292  0.52951195    -0.40540
O1482       O  0.92355575  0.64250881  0.53218323    -0.40610
C1483       C  0.61067538  0.52913115  0.76047405    -0.12890
C1484       C  0.60450863  0.53589901  0.71752399     0.04110
C1485       C  0.57925811  0.54634945  0.71116878    -0.08180
C1486       C  0.56075728  0.54874312  0.74710749    -0.08920
C1487       C  0.56719783  0.54190053  0.78987843    -0.03470
C1488       C  0.59263022  0.53177770  0.79650335     0.03340
N1489       N  0.60240394  0.52659250  0.83944146     0.65850
H1490       H  0.63254838  0.52569723  0.76678815     0.14750
H1491       H  0.54147854  0.55672226  0.74173941     0.14460
N1492       N  0.57370706  0.55698884  0.66905894     0.73550
O1493       O  0.61728985  0.50828491  0.84477125    -0.39900
O1494       O  0.59948901  0.54305232  0.87156240    -0.39840
O1495       O  0.57939313  0.54429407  0.63521188    -0.40540
O1496       O  0.56315390  0.57934095  0.66555523    -0.40610
C1497       C  0.78792628  0.41586190  0.66073403    -0.12890
C1498       C  0.75617982  0.41439563  0.65430423     0.04110
C1499       C  0.72596556  0.38097428  0.65482062    -0.08180
C1500       C  0.72823740  0.35004323  0.66211139    -0.08920
C1501       C  0.76004455  0.35140289  0.66747974    -0.03470
C1502       C  0.79026729  0.38494609  0.66759959     0.03340
N1503       N  0.82346469  0.38840537  0.67489428     0.65850
H1504       H  0.81129448  0.44135681  0.66123802     0.14750
H1505       H  0.70488214  0.32455903  0.66136204     0.14460
N1506       N  0.69298713  0.37755315  0.64601850     0.73550
O1507       O  0.84811582  0.40844047  0.65074841    -0.39900
O1508       O  0.82954001  0.37680874  0.70958743    -0.39840
O1509       O  0.68718978  0.38730078  0.60976675    -0.40540
O1510       O  0.66815622  0.35881652  0.67059060    -0.40610
C1511       C  0.57889046  0.35691161  0.71819666    -0.12890
C1512       C  0.56869933  0.36091256  0.67621791     0.04110
C1513       C  0.57806377  0.39575996  0.66176047    -0.08180
C1514       C  0.59748731  0.42530287  0.68856442    -0.08920
C1515       C  0.61048232  0.42196289  0.72888687    -0.03470
C1516       C  0.59983261  0.38699904  0.74470433     0.03340
N1517       N  0.61052007  0.38174293  0.78702557     0.65850
H1518       H  0.57063590  0.33020200  0.73015439     0.14750
H1519       H  0.60645599  0.45165202  0.67499798     0.14460
N1520       N  0.57208490  0.40220095  0.61779710     0.73550
O1521       O  0.60256106  0.35073719  0.80005374    -0.39900
O1522       O  0.62522897  0.40753685  0.81314768    -0.39840
O1523       O  0.54276096  0.39645560  0.60610923    -0.40540
O1524       O  0.59729293  0.42002382  0.59334699    -0.40610
C1525       C  0.73029139  0.73650467  0.12825531    -0.12890
C1526       C  0.75089432  0.74676817  0.09079917     0.04110
C1527       C  0.77517644  0.73458833  0.08676296    -0.08180
C1528       C  0.77829107  0.71355873  0.12004021    -0.08920
C1529       C  0.75681391  0.70257343  0.15640857    -0.03470
C1530       C  0.73246525  0.71427881  0.16020880     0.03340
N1531       N  0.71013836  0.70463081  0.19676371     0.65850
H1532       H  0.71153403  0.74524608  0.13273524     0.14750
H1533       H  0.79654658  0.70403818  0.11627232     0.14460
N1534       N  0.79617312  0.74190499  0.04911398     0.73550
O1535       O  0.71045784  0.72887171  0.22018070    -0.39900
O1536       O  0.68533381  0.67329593  0.19969010    -0.39840
O1537       O  0.82635689  0.74716410  0.05350202    -0.40540
O1538       O  0.78238296  0.73396559  0.01206652    -0.40610
C1539       C  0.92186173  0.72211069  0.13546736    -0.12890
C1540       C  0.90569427  0.69125893  0.11000046     0.04110
C1541       C  0.92468414  0.68519068  0.07782437    -0.08180
C1542       C  0.95837574  0.71157188  0.06963062    -0.08920
C1543       C  0.97384184  0.74298205  0.09422599    -0.03470
C1544       C  0.95590465  0.74710454  0.12937775     0.03340
N1545       N  0.97138711  0.77657914  0.15902347     0.65850
H1546       H  0.90835116  0.72658544  0.16161479     0.14750
H1547       H  0.97223608  0.70786201  0.04328749     0.14460
N1548       N  0.91068987  0.65257581  0.05369625     0.73550
O1549       O  0.95690664  0.79491667  0.16667656    -0.39900
O1550       O  0.99526431  0.77959256  0.18372473    -0.39840
O1551       O  0.88713958  0.64544802  0.02633952    -0.40540
O1552       O  0.92583611  0.63427434  0.05408107    -0.40610
C1553       C  0.58242202  0.54189483  0.22255017    -0.12890
C1554       C  0.61397267  0.54401354  0.23049309     0.04110
C1555       C  0.62728120  0.55185309  0.27373581    -0.08180
C1556       C  0.60805279  0.55487975  0.30762708    -0.08920
C1557       C  0.57655202  0.55259161  0.29957761    -0.03470
C1558       C  0.56406406  0.54678106  0.25602551     0.03340
N1559       N  0.53349281  0.54750682  0.24434219     0.65850
H1560       H  0.57272289  0.53840169  0.18961887     0.14750
H1561       H  0.61798221  0.55926087  0.34049188     0.14460
N1562       N  0.66102709  0.55893624  0.28429913     0.73550
O1563       O  0.53625340  0.57654373  0.23082447    -0.39900
O1564       O  0.50789738  0.51881018  0.23223845    -0.39840
O1565       O  0.68523755  0.59002249  0.27747007    -0.40540
O1566       O  0.66441113  0.54103881  0.31454933    -0.40610
C1567       C  0.76873434  0.59219893  0.96200607    -0.12890
C1568       C  0.74413192  0.55961765  0.97931005     0.04110
C1569       C  0.72953019  0.52833356  0.95397528    -0.08180
C1570       C  0.73915971  0.53078357  0.91091573    -0.08920
C1571       C  0.76367956  0.56344562  0.89373953    -0.03470
C1572       C  0.77960313  0.59422625  0.91971588     0.03340
N1573       N  0.80636858  0.62758671  0.90369687     0.65850
H1574       H  0.78132744  0.61566403  0.98252814     0.14750
H1575       H  0.72680994  0.50733044  0.89036484     0.14460
N1576       N  0.70683749  0.49388353  0.97187725     0.73550
O1577       O  0.80580520  0.65614825  0.91166185    -0.39900
O1578       O  0.83365459  0.62939424  0.88985739    -0.39840
O1579       O  0.67936609  0.48830129  0.98968084    -0.40540
O1580       O  0.71146535  0.46770541  0.96380168    -0.40610
C1581       C  0.76357930  0.54088237  0.41281486    -0.12890
C1582       C  0.75984986  0.56786317  0.39263632     0.04110
C1583       C  0.75255923  0.59125106  0.41642558    -0.08180
C1584       C  0.74936721  0.58734946  0.46098679    -0.08920
C1585       C  0.75299115  0.56037300  0.48132350    -0.03470
C1586       C  0.76060754  0.53697103  0.45757598     0.03340
N1587       N  0.76488683  0.50910338  0.47789172     0.65850
H1588       H  0.76889894  0.52300772  0.39367357     0.14750
H1589       H  0.74423545  0.60549443  0.47985271     0.14460
N1590       N  0.74876819  0.61919059  0.39590514     0.73550
O1591       O  0.75395391  0.47936898  0.45909797    -0.39900
O1592       O  0.78401380  0.51568196  0.51069771    -0.39840
O1593       O  0.72532923  0.61163668  0.36823903    -0.40540
O1594       O  0.76516301  0.65068508  0.41029600    -0.40610
C1595       C  0.72200358  0.38055355  0.15539548    -0.12890
C1596       C  0.75308214  0.41270252  0.15440643     0.04110
C1597       C  0.78425610  0.41183960  0.15579576    -0.08180
C1598       C  0.78355298  0.37907400  0.15689851    -0.08920
C1599       C  0.75252331  0.34684194  0.15678263    -0.03470
C1600       C  0.72134381  0.34766672  0.15602601     0.03340
N1601       N  0.68886260  0.31573473  0.15425810     0.65850
H1602       H  0.69790883  0.38079323  0.15412740     0.14750
H1603       H  0.80776403  0.37906788  0.15788406     0.14460
N1604       N  0.81690148  0.44369575  0.15626967     0.73550
O1605       O  0.66654791  0.31055034  0.18235417    -0.39900
O1606       O  0.67985691  0.29743277  0.11990465    -0.39840
O1607       O  0.82625973  0.46339158  0.18947186    -0.40540
O1608       O  0.83872822  0.44823250  0.12772223    -0.40610
C1609       C  0.58750026  0.35706166  0.22042411    -0.12890
C1610       C  0.56403240  0.36086702  0.19361600     0.04110
C1611       C  0.56234788  0.39308545  0.19649353    -0.08180
C1612       C  0.58512894  0.42088212  0.22383643    -0.08920
C1613       C  0.61147408  0.41873138  0.24606517    -0.03470
C1614       C  0.61124076  0.38549693  0.24652730     0.03340
N1615       N  0.63710723  0.38154508  0.27017010     0.65850
H1616       H  0.58814798  0.33215880  0.21988424     0.14750
H1617       H  0.58575472  0.44644322  0.22189573     0.14460
N1618       N  0.54045051  0.39990386  0.16852467     0.73550
O1619       O  0.64301712  0.35629202  0.26156152    -0.39900
O1620       O  0.65321038  0.40238731  0.30105572    -0.39840
O1621       O  0.52282884  0.41285800  0.18404378    -0.40540
O1622       O  0.54421059  0.40022922  0.12799568    -0.40610
C1623       C  0.95626157  0.36911682  0.79163950    -0.12890
C1624       C  0.95214157  0.37644999  0.83502261     0.04110
C1625       C  0.92025590  0.35445340  0.85529117    -0.08180
C1626       C  0.89347739  0.32686695  0.83054613    -0.08920
C1627       C  0.89759238  0.32155211  0.78636222    -0.03470
C1628       C  0.92986828  0.34225122  0.76725892     0.03340
N1629       N  0.93633008  0.33682403  0.72300606     0.65850
H1630       H  0.98030306  0.38609960  0.77554235     0.14750
H1631       H  0.86876270  0.31023570  0.84521979     0.14460
N1632       N  0.91405607  0.36036706  0.89957393     0.73550
O1633       O  0.95732289  0.36290987  0.70055019    -0.39900
O1634       O  0.92435125  0.30565709  0.70785998    -0.39840
O1635       O  0.93819789  0.38182485  0.92372900    -0.40540
O1636       O  0.88454693  0.34263387  0.91561632    -0.40610
C1637       C  0.11103687  0.71408421  0.88236230    -0.12890
C1638       C  0.08682265  0.68285861  0.90298779     0.04110
C1639       C  0.06736430  0.68473735  0.93784103    -0.08180
C1640       C  0.07270325  0.71857612  0.95027756    -0.08920
C1641       C  0.09709060  0.74984209  0.92961868    -0.03470
C1642       C  0.11635292  0.74761225  0.89507036     0.03340
N1643       N  0.14006030  0.77863599  0.87124176     0.65850
H1644       H  0.12576227  0.71225907  0.85568563     0.14750
H1645       H  0.05808663  0.72076371  0.97680069     0.14460
N1646       N  0.04200198  0.65334271  0.96027438     0.73550
O1647       O  0.16756870  0.78090851  0.85750974    -0.39900
O1648       O  0.13131129  0.80096521  0.85818861    -0.39840
O1649       O  0.04098810  0.62354262  0.95661191    -0.40540
O1650       O  0.02084762  0.65554426  0.98522341    -0.40610
C1651       C  0.94776655  0.56601042  0.79673963    -0.12890
C1652       C  0.95055741  0.53880511  0.77475445     0.04110
C1653       C  0.92267385  0.51465989  0.74894607    -0.08180
C1654       C  0.89515965  0.52102074  0.74127782    -0.08920
C1655       C  0.89370589  0.55011515  0.76009459    -0.03470
C1656       C  0.91943319  0.57148488  0.79039989     0.03340
N1657       N  0.91810290  0.59952777  0.81386856     0.65850
H1658       H  0.96837414  0.58403242  0.81791453     0.14750
H1659       H  0.87489445  0.50319107  0.71956711     0.14460
N1660       N  0.92242116  0.48456689  0.72850911     0.73550
O1661       O  0.91953809  0.59976120  0.85472978    -0.39900
O1662       O  0.92232657  0.62720264  0.79420854    -0.39840
O1663       O  0.92174605  0.45990578  0.75160246    -0.40540
O1664       O  0.91533402  0.47889759  0.68867027    -0.40610
C1665       C  0.06540836  0.33285587  0.85444461    -0.12890
C1666       C  0.09636859  0.33195756  0.85485124     0.04110
C1667       C  0.12196802  0.35405489  0.82493453    -0.08180
C1668       C  0.11696362  0.37825404  0.79866134    -0.08920
C1669       C  0.08675670  0.38073032  0.80044466    -0.03470
C1670       C  0.06046893  0.35668100  0.82798663     0.03340
N1671       N  0.02963203  0.35849331  0.83251086     0.65850
H1672       H  0.04510022  0.31591972  0.87638116     0.14750
H1673       H  0.13796377  0.39726005  0.77899149     0.14460
N1674       N  0.15343867  0.35309320  0.82137496     0.73550
O1675       O  0.00981366  0.35093934  0.80036397    -0.39900
O1676       O  0.01907985  0.36042037  0.86970932    -0.39840
O1677       O  0.15279374  0.32393402  0.81328895    -0.40540
O1678       O  0.18145849  0.38187031  0.81873827    -0.40610
C1679       C  0.25670028  0.57531880  0.84265681    -0.12890
C1680       C  0.23172973  0.54435590  0.86364175     0.04110
C1681       C  0.24024399  0.51790499  0.87527747    -0.08180
C1682       C  0.27325046  0.52316987  0.86740000    -0.08920
C1683       C  0.29852091  0.55422759  0.84686334    -0.03470
C1684       C  0.28970780  0.58039074  0.83382231     0.03340
N1685       N  0.31301901  0.61126070  0.80977243     0.65850
H1686       H  0.25048823  0.59574297  0.83268060     0.14750
H1687       H  0.27901783  0.50243962  0.87741502     0.14460
N1688       N  0.21600689  0.48594325  0.89647975     0.73550
O1689       O  0.30380766  0.61777949  0.77369868    -0.39900
O1690       O  0.33984257  0.63511178  0.82773615    -0.39840
O1691       O  0.19414941  0.45996769  0.87444102    -0.40540
O1692       O  0.21883257  0.48225089  0.93659644    -0.40610
C1693       C  0.23586245  0.71833743  0.81511920    -0.12890
C1694       C  0.23275284  0.69073594  0.78820734     0.04110
C1695       C  0.26187492  0.69342125  0.76724428    -0.08180
C1696       C  0.29414581  0.72296694  0.77674964    -0.08920
C1697       C  0.29740624  0.74975020  0.80561912    -0.03470
C1698       C  0.26773457  0.74764403  0.82443350     0.03340
N1699       N  0.26957011  0.77380165  0.85500637     0.65850
H1700       H  0.21346204  0.71564515  0.83181107     0.14750
H1701       H  0.31676860  0.72563938  0.76081229     0.14460
N1702       N  0.25912839  0.66679453  0.73657557     0.73550
O1703       O  0.24614205  0.78215776  0.85594866    -0.39900
O1704       O  0.29179702  0.78478677  0.88487238    -0.39840
O1705       O  0.23087945  0.64630090  0.71840797    -0.40540
O1706       O  0.28563137  0.66626345  0.72384650    -0.40610
C1707       C  0.12357197  0.57544193  0.55483585    -0.12890
C1708       C  0.11688681  0.54300522  0.53621131     0.04110
C1709       C  0.11850476  0.51652870  0.56165642    -0.08180
C1710       C  0.12163660  0.52087012  0.60630670    -0.08920
C1711       C  0.12346031  0.55121238  0.62562311    -0.03470
C1712       C  0.12724787  0.58001849  0.59951791     0.03340
N1713       N  0.13066039  0.61223109  0.61770116     0.65850
H1714       H  0.12325709  0.59620269  0.53503997     0.14750
H1715       H  0.11973365  0.49907271  0.62611686     0.14460
N1716       N  0.11240670  0.48322950  0.54355393     0.73550
O1717       O  0.15933590  0.64032046  0.61662991    -0.39900
O1718       O  0.10416337  0.61442497  0.62599881    -0.39840
O1719       O  0.13552714  0.48174762  0.52195277    -0.40540
O1720       O  0.08602676  0.45468063  0.55412818    -0.40610
C1721       C  0.09005733  0.56432236  0.06037644    -0.12890
C1722       C  0.06779140  0.53235305  0.03903197     0.04110
C1723       C  0.04455702  0.50242359  0.06320862    -0.08180
C1724       C  0.04463718  0.50504742  0.10831718    -0.08920
C1725       C  0.06786757  0.53674293  0.12903740    -0.03470
C1726       C  0.09078344  0.56671135  0.10504751     0.03340
N1727       N  0.11690460  0.59860140  0.12542306     0.65850
H1728       H  0.10837873  0.58751675  0.04251688     0.14750
H1729       H  0.02764924  0.48188636  0.12730763     0.14460
N1730       N  0.02150029  0.46922006  0.04295198     0.73550
O1731       O  0.14738536  0.61255496  0.11222515    -0.39900
O1732       O  0.10887763  0.61572890  0.15171082    -0.39840
O1733       O  0.03257541  0.44882064  0.03021051    -0.40540
O1734       O  0.98967058  0.45678003  0.04728834    -0.40610
C1735       C  0.88757620  0.35766483  0.30578831    -0.12890
C1736       C  0.89574840  0.33655947  0.27873629     0.04110
C1737       C  0.93015514  0.34376372  0.27718313    -0.08180
C1738       C  0.95514519  0.37165094  0.30264001    -0.08920
C1739       C  0.94727978  0.39307810  0.32969670    -0.03470
C1740       C  0.91268435  0.38535528  0.33185317     0.03340
N1741       N  0.90218735  0.40375580  0.36176078     0.65850
H1742       H  0.86111688  0.35158102  0.30788247     0.14750
H1743       H  0.98146485  0.37733405  0.30019331     0.14460
N1744       N  0.94051593  0.32378096  0.24938488     0.73550
O1745       O  0.87709002  0.40840959  0.35265796    -0.39900
O1746       O  0.91425721  0.41027857  0.39979129    -0.39840
O1747       O  0.92601282  0.31209907  0.21322988    -0.40540
O1748       O  0.96665019  0.32102950  0.25877768    -0.40610
C1749       C  0.08044416  0.68413394  0.45950671    -0.12890
C1750       C  0.10392935  0.68326912  0.43038162     0.04110
C1751       C  0.13205943  0.71578239  0.41666948    -0.08180
C1752       C  0.13443290  0.74822209  0.42925846    -0.08920
C1753       C  0.10957918  0.74913014  0.45570437    -0.03470
C1754       C  0.08305590  0.71672489  0.47272414     0.03340
N1755       N  0.05880106  0.71635667  0.50335177     0.65850
H1756       H  0.05920782  0.65930665  0.47076800     0.14750
H1757       H  0.15526263  0.77289721  0.41692838     0.14460
N1758       N  0.15795722  0.71633374  0.38903157     0.73550
O1759       O  0.02826125  0.69117731  0.50295661    -0.39900
O1760       O  0.06890632  0.73814137  0.53458636    -0.39840
O1761       O  0.16792960  0.73661752  0.35640527    -0.40540
O1762       O  0.17300963  0.69896296  0.39927370    -0.40610
C1763       C  0.91770798  0.56796387  0.22784298    -0.12890
C1764       C  0.88951833  0.55470583  0.25543548     0.04110
C1765       C  0.89053142  0.54007512  0.29604240    -0.08180
C1766       C  0.92034140  0.53889484  0.30758923    -0.08920
C1767       C  0.94887090  0.55250473  0.28001075    -0.03470
C1768       C  0.94758357  0.56781228  0.23996556     0.03340
N1769       N  0.97643626  0.58430783  0.21167821     0.65850
H1770       H  0.91694592  0.57981571  0.19704677     0.14750
H1771       H  0.92122336  0.52718513  0.33836585     0.14460
N1772       N  0.86184364  0.52581819  0.32528403     0.73550
O1773       O  0.97374897  0.57296774  0.17338155    -0.39900
O1774       O  0.00095838  0.61471136  0.22123873    -0.39840
O1775       O  0.83164417  0.51388713  0.31128268    -0.40540
O1776       O  0.86635665  0.52259655  0.36511730    -0.40610
C1777       C  0.08964578  0.33992510  0.33525496    -0.12890
C1778       C  0.11038355  0.35209284  0.37263704     0.04110
C1779       C  0.13280162  0.38930032  0.37733682    -0.08180
C1780       C  0.13359851  0.41275198  0.34459818    -0.08920
C1781       C  0.11173975  0.40062998  0.30820275    -0.03470
C1782       C  0.09048828  0.36347313  0.30266660     0.03340
N1783       N  0.06863411  0.34950769  0.26501158     0.65850
H1784       H  0.07242708  0.31163610  0.33148037     0.14750
H1785       H  0.14883682  0.44121599  0.34989072     0.14460
N1786       N  0.15123357  0.40438116  0.41712765     0.73550
O1787       O  0.04553195  0.31718923  0.26356854    -0.39900
O1788       O  0.07421885  0.36847445  0.23150867    -0.39840
O1789       O  0.16629235  0.39031179  0.43717519    -0.40540
O1790       O  0.15350099  0.43293918  0.43171516    -0.40610
C1791       C  0.27695468  0.52563265  0.37848504    -0.12890
C1792       C  0.29240049  0.54222018  0.33911046     0.04110
C1793       C  0.27304479  0.54633568  0.30616801    -0.08180
C1794       C  0.23940573  0.53690366  0.31507362    -0.08920
C1795       C  0.22506983  0.52523669  0.35672134    -0.03470
C1796       C  0.24323381  0.51714923  0.38789259     0.03340
N1797       N  0.22878760  0.50159369  0.42899872     0.65850
H1798       H  0.29179454  0.52083284  0.40285669     0.14750
H1799       H  0.22492721  0.54081358  0.28938692     0.14460
N1800       N  0.28759727  0.56275260  0.26523046     0.73550
O1801       O  0.23511104  0.47844406  0.44549128    -0.39900
O1802       O  0.21258998  0.51323018  0.45088301    -0.39840
O1803       O  0.30441429  0.55200927  0.24311741    -0.40540
O1804       O  0.27968699  0.58459941  0.24833610    -0.40610
C1805       C  0.23227048  0.71592996  0.30842513    -0.12890
C1806       C  0.23095249  0.68307684  0.30034980     0.04110
C1807       C  0.26242883  0.68249544  0.29915371    -0.08180
C1808       C  0.29371511  0.71413683  0.30614447    -0.08920
C1809       C  0.29498966  0.74706664  0.31362474    -0.03470
C1810       C  0.26344746  0.74752299  0.31546228     0.03340
N1811       N  0.26222519  0.77955710  0.32521996     0.65850
H1812       H  0.20868275  0.71711062  0.31006682     0.14750
H1813       H  0.31736065  0.71306852  0.30409133     0.14460
N1814       N  0.26350071  0.65044261  0.28940910     0.73550
O1815       O  0.24393767  0.78823512  0.30235491    -0.39900
O1816       O  0.27411265  0.79535696  0.36080859    -0.39840
O1817       O  0.25408987  0.63638148  0.25244066    -0.40540
O1818       O  0.28024129  0.64070841  0.31370564    -0.40610
loop_ 
_geom_bond_atom_site_label_1 
_geom_bond_atom_site_label_2 
_geom_bond_distance 
_geom_bond_site_symmetry_2 
_ccdc_geom_bond_type 
N1            N2   1.325       .  A
N1            N7   1.317       .  A
N1          Mn30   2.233       .  S
N2            C9   1.359       .  A
N3            N5   1.313       .  A
N3            N4   1.314       .  A
N3          Mn19   2.184       .  S
N4           C10   1.349   1_455  A
N5            N6   1.317   1_455  A
N5          Mn30   2.170       .  S
N6           C10   1.352       .  A
N7            N8   1.314       .  A
N7          Mn19   2.177       .  S
N8            C9   1.348       .  A
C9         C1750   1.479       .  S
C10        C1767   1.471       .  S
N11          N17   1.316       .  A
N11          N12   1.314       .  A
N11         Mn41   2.170       .  S
N12          C20   1.349       .  A
N13          N14   1.326       .  A
N13          N15   1.309       .  A
N13         Mn19   2.207       .  S
N14          C21   1.360       .  A
N15          N16   1.323       .  A
N15         Mn41   2.207       .  S
N16          C21   1.354       .  A
N17          N18   1.313       .  A
N17         Mn19   2.182       .  S
N18          C20   1.347       .  A
Mn19        Cl43   2.517       .  S
C20        C1725   1.440       .  S
C21        C1806   1.506       .  S
N22          N23   1.331   1_455  A
N22          N28   1.316       .  A
N22         Mn30   2.249       .  S
N23          C31   1.364       .  A
N24          N26   1.312       .  A
N24          N25   1.311       .  A
N24         Mn42   2.135       .  S
N25          C32   1.342       .  A
N26          N27   1.318       .  A
N26         Mn30   2.194       .  S
N27          C32   1.354       .  A
N28          N29   1.319       .  A
N28         Mn42   2.192       .  S
N29          C31   1.350   1_455  A
Mn30        Cl43   2.528       .  S
C31        C1739   1.506       .  S
C32        C1708   1.453       .  S
N33          N34   1.294       .  A
N33          N39   1.308       .  A
N33         Mn41   2.088       .  S
N34          C44   1.331       .  A
N35          N36   1.310       .  A
N35          N37   1.313       .  A
N35         Mn42   2.134       .  S
N36          C45   1.334       .  A
N37          N38   1.333       .  A
N37         Mn41   2.267       .  S
N38          C45   1.365       .  A
N39          N40   1.331       .  A
N39         Mn42   2.253       .  S
N40          C44   1.367       .  A
Mn41        Cl43   2.513       .  S
Mn42        Cl43   2.521       .  S
C44        C1795   1.469       .  S
C45        C1781   1.482       .  S
N46          N47   1.318       .  A
N46          N52   1.312       .  A
N46         Mn75   2.185       .  S
N47          C54   1.353       .  A
N48          N50   1.311       .  A
N48          N49   1.313       .  A
N48         Mn64   2.168       .  S
N49          C55   1.347       .  A
N50          N51   1.324       .  A
N50         Mn75   2.201       .  S
N51          C55   1.356       .  A
N52          N53   1.316       .  A
N52         Mn64   2.179       .  S
N53          C54   1.349       .  A
C54        C1638   1.458       .  S
C55        C1694   1.462       .  S
N56          N62   1.314       .  A
N56          N57   1.328       .  A
N56         Mn86   2.247       .  S
N57          C65   1.361       .  A
N58          N59   1.307       .  A
N58          N60   1.312       .  A
N58         Mn64   2.155       .  S
N59          C66   1.346       .  A
N60          N61   1.319       .  A
N60         Mn86   2.173       .  S
N61          C66   1.353       .  A
N62          N63   1.320       .  A
N62         Mn64   2.173       .  S
N63          C65   1.348       .  A
Mn64        Cl88   2.510       .  S
C65        C1680   1.496       .  S
C66        C1722   1.461   1_556  S
N67          N68   1.314       .  A
N67          N73   1.317       .  A
N67         Mn75   2.172       .  S
N68          C76   1.346       .  A
N69          N71   1.315       .  A
N69          N70   1.324   1_455  A
N69         Mn87   2.233       .  S
N70          C77   1.356       .  A
N71          N72   1.322       .  A
N71         Mn75   2.192       .  S
N72          C77   1.353   1_455  A
N73          N74   1.315       .  A
N73         Mn87   2.188       .  S
N74          C76   1.354       .  A
Mn75        Cl88   2.547       .  S
C76        C1711   1.459       .  S
C77        C1652   1.493       .  S
N78          N79   1.337       .  A
N78          N84   1.313       .  A
N78         Mn86   2.299       .  S
N79          C89   1.374   1_455  A
N80          N81   1.339       .  A
N80          N82   1.313       .  A
N80         Mn87   2.309       .  S
N81          C90   1.375       .  A
N82          N83   1.306       .  A
N82         Mn86   2.108       .  S
N83          C90   1.331       .  A
N84          N85   1.306   1_455  A
N84         Mn87   2.133       .  S
N85          C89   1.336       .  A
Mn86        Cl88   2.541       .  S
Mn87        Cl88   2.512       .  S
C89        C1624   1.494       .  S
C90        C1669   1.487       .  S
N91          N92   1.319       .  A
N91          N97   1.315       .  A
N91        Mn120   2.199       .  S
N92          C99   1.353       .  A
N93          N95   1.310       .  A
N93          N94   1.317       .  A
N93        Mn109   2.159       .  S
N94         C100   1.348       .  A
N95          N96   1.312       .  A
N95        Mn120   2.160       .  S
N96         C100   1.350       .  A
N97          N98   1.313       .  A
N97        Mn109   2.172       .  S
N98          C99   1.347       .  A
C99        C1764   1.453       .  S
C100       C1540   1.468       .  S
N101        N107   1.319       .  A
N101        N102   1.316       .  A
N101       Mn131   2.175       .  S
N102        C110   1.350       .  A
N103        N104   1.313       .  A
N103        N105   1.308       .  A
N103       Mn109   2.140       .  S
N104        C111   1.346       .  A
N105        N106   1.319       .  A
N105       Mn131   2.185       .  S
N106        C111   1.353       .  A
N107        N108   1.304       .  A
N107       Mn109   2.155       .  S
N108        C110   1.341       .  A
Mn109      Cl133   2.487       .  S
C110       C1568   1.432   1_554  S
C111       C1596   1.470       .  S
N112        N113   1.326       .  A
N112        N118   1.314       .  A
N112       Mn120   2.196       .  S
N113        C121   1.355       .  A
N114        N116   1.311       .  A
N114        N115   1.308       .  A
N114       Mn132   2.139       .  S
N115        C122   1.339       .  A
N116        N117   1.316       .  A
N116       Mn120   2.170       .  S
N117        C122   1.349       .  A
N118        N119   1.323       .  A
N118       Mn132   2.224       .  S
N119        C121   1.351       .  A
Mn120      Cl133   2.532       .  S
C121       C1529   1.496       .  S
C122       C1582   1.429       .  S
N123        N124   1.305       .  A
N123        N129   1.309       .  A
N123       Mn131   2.079       .  S
N124        C134   1.333       .  A
N125        N126   1.311       .  A
N125        N127   1.308       .  A
N125       Mn132   2.154       .  S
N126        C135   1.329       .  A
N127        N128   1.336       .  A
N127       Mn131   2.278       .  S
N128        C135   1.367       .  A
N129        N130   1.336       .  A
N129       Mn132   2.330       .  S
N130        C134   1.372       .  A
Mn131      Cl133   2.527       .  S
Mn132      Cl133   2.452       .  S
C134       C1613   1.479       .  S
C135       C1554   1.490       .  S
N136        N137   1.328       .  A
N136        N142   1.314       .  A
N136       Mn165   2.237       .  S
N137        C144   1.362       .  A
N138        N140   1.309       .  A
N138        N139   1.316       .  A
N138       Mn154   2.161       .  S
N139        C145   1.347       .  A
N140        N141   1.315       .  A
N140       Mn165   2.163       .  S
N141        C145   1.351       .  A
N142        N143   1.316       .  A
N142       Mn154   2.189       .  S
N143        C144   1.351       .  A
C144       C1655   1.494       .  S
C145       C1470   1.470       .  S
N146        N152   1.322       .  A
N146        N147   1.317       .  A
N146       Mn176   2.196       .  S
N147        C155   1.351       .  A
N148        N149   1.315       .  A
N148        N150   1.309       .  A
N148       Mn154   2.145       .  S
N149        C156   1.349       .  A
N150        N151   1.318       .  A
N150       Mn176   2.187       .  S
N151        C156   1.351       .  A
N152        N153   1.306       .  A
N152       Mn154   2.162       .  S
N153        C155   1.338       .  A
Mn154      Cl178   2.495       .  S
C155       C1585   1.430       .  S
C156       C1498   1.473       .  S
N157        N158   1.328       .  A
N157        N163   1.320       .  A
N157       Mn165   2.219       .  S
N158        C166   1.355       .  A
N159        N161   1.313       .  A
N159        N160   1.309       .  A
N159       Mn177   2.142       .  S
N160        C167   1.344       .  A
N161        N162   1.313       .  A
N161       Mn165   2.157       .  S
N162        C167   1.346       .  A
N163        N164   1.325       .  A
N163       Mn177   2.236       .  S
N164        C166   1.353       .  A
Mn165      Cl178   2.534       .  S
C166       C1456   1.504       .  S
C167       C1571   1.434       .  S
N168        N169   1.307       .  A
N168        N174   1.309       .  A
N168       Mn176   2.096       .  S
N169        C179   1.333       .  A
N170        N171   1.315       .  A
N170        N172   1.310       .  A
N170       Mn177   2.132       .  S
N171        C180   1.333       .  A
N172        N173   1.339       .  A
N172       Mn176   2.312       .  S
N173        C180   1.371       .  A
N174        N175   1.337       .  A
N174       Mn177   2.337       .  S
N175        C179   1.375       .  A
Mn176      Cl178   2.523       .  S
Mn177      Cl178   2.495       .  S
C179       C1515   1.489       .  S
C180       C1484   1.509       .  S
N181        N182   1.321       .  A
N181        N187   1.311       .  A
N181       Mn210   2.214       .  S
N182        C189   1.355       .  A
N183        N185   1.317       .  A
N183        N184   1.317       .  A
N183       Mn199   2.195       .  S
N184        C190   1.352       .  A
N185        N186   1.309       .  A
N185       Mn210   2.161       .  S
N186        C190   1.345       .  A
N187        N188   1.315       .  A
N187       Mn199   2.142       .  S
N188        C189   1.346       .  A
C189       C1641   1.466       .  S
C190       C1403   1.471       .  S
N191        N197   1.314       .  A
N191        N192   1.326       .  A
N191       Mn221   2.233       .  S
N192        C200   1.359   1_455  A
N193        N194   1.322       .  A
N193        N195   1.309       .  A
N193       Mn199   2.201   1_554  S
N194        C201   1.359       .  A
N195        N196   1.306       .  A
N195       Mn221   2.136       .  S
N196        C201   1.342       .  A
N197        N198   1.318   1_554  A
N197       Mn199   2.172   1_554  S
N198        C200   1.347   1_456  A
Mn199      Cl223   2.545   1_556  S
C200       C1428   1.477   1_554  S
C201       C1543   1.466   1_455  S
N202        N203   1.334       .  A
N202        N208   1.309   1_556  A
N202       Mn210   2.281       .  S
N203        C211   1.370   1_566  A
N204        N206   1.312       .  A
N204        N205   1.345       .  A
N204       Mn222   2.322       .  S
N205        C212   1.379       .  A
N206        N207   1.306       .  A
N206       Mn210   2.143   1_554  S
N207        C212   1.334       .  A
N208        N209   1.305       .  A
N208       Mn222   2.093       .  S
N209        C211   1.333   1_565  A
Mn210      Cl223   2.476   1_556  S
C211       C1386   1.473       .  S
C212       C1372   1.522   1_554  S
N213        N214   1.313       .  A
N213        N219   1.317       .  A
N213       Mn221   2.186       .  S
N214        C224   1.345       .  A
N215        N216   1.324       .  A
N215        N217   1.315       .  A
N215       Mn222   2.236       .  S
N216        C225   1.358       .  A
N217        N218   1.315       .  A
N217       Mn221   2.155       .  S
N218        C225   1.346       .  A
N219        N220   1.318       .  A
N219       Mn222   2.185       .  S
N220        C224   1.353       .  A
Mn221      Cl223   2.501       .  S
Mn222      Cl223   2.546       .  S
C224       C1417   1.453       .  S
C225       C1445   1.484   1_565  S
N226        N227   1.322       .  A
N226        N232   1.312       .  A
N226       Mn255   2.215       .  S
N227        C234   1.355       .  A
N228        N230   1.320       .  A
N228        N229   1.316       .  A
N228       Mn244   2.191       .  S
N229        C235   1.349       .  A
N230        N231   1.314       .  A
N230       Mn255   2.182       .  S
N231        C235   1.346       .  A
N232        N233   1.318       .  A
N232       Mn244   2.165       .  S
N233        C234   1.349       .  A
C234       C1753   1.479       .  S
C235       C1414   1.453       .  S
N236        N242   1.314       .  A
N236        N237   1.321       .  A
N236       Mn266   2.204       .  S
N237        C245   1.353       .  A
N238        N239   1.321       .  A
N238        N240   1.308       .  A
N238       Mn244   2.197       .  S
N239        C246   1.359       .  A
N240        N241   1.308       .  A
N240       Mn266   2.136       .  S
N241        C246   1.344       .  A
N242        N243   1.321       .  A
N242       Mn244   2.198       .  S
N243        C245   1.352       .  A
Mn244      Cl268   2.546       .  S
C245       C1344   1.477   1_455  S
C246       C1473   1.469   1_455  S
N247        N248   1.337       .  A
N247        N253   1.312       .  A
N247       Mn255   2.312       .  S
N248        C256   1.371   1_565  A
N249        N251   1.312       .  A
N249        N250   1.344       .  A
N249       Mn267   2.329       .  S
N250        C257   1.378       .  A
N251        N252   1.307       .  A
N251       Mn255   2.140       .  S
N252        C257   1.330       .  A
N253        N254   1.303   1_565  A
N253       Mn267   2.093       .  S
N254        C256   1.335       .  A
Mn255      Cl268   2.482       .  S
C256       C1330   1.489       .  S
C257       C1316   1.512       .  S
N258        N259   1.308       .  A
N258        N264   1.315       .  A
N258       Mn266   2.169       .  S
N259        C269   1.345       .  A
N260        N261   1.326       .  A
N260        N262   1.312       .  A
N260       Mn267   2.235       .  S
N261        C270   1.361       .  A
N262        N263   1.316       .  A
N262       Mn266   2.156       .  S
N263        C270   1.346       .  A
N264        N265   1.319       .  A
N264       Mn267   2.189       .  S
N265        C269   1.357       .  A
Mn266      Cl268   2.495       .  S
Mn267      Cl268   2.545       .  S
C269       C1400   1.469       .  S
C270       C1358   1.493   1_565  S
N271        N272   1.317       .  A
N271        N277   1.315       .  A
N271       Mn300   2.175       .  S
N272        C279   1.349       .  A
N273        N275   1.313       .  A
N273        N274   1.320       .  A
N273       Mn289   2.173       .  S
N274        C280   1.349       .  A
N275        N276   1.318       .  A
N275       Mn300   2.219       .  S
N276        C280   1.358       .  A
N277        N278   1.315       .  A
N277       Mn289   2.192       .  S
N278        C279   1.350       .  A
C279       C1249   1.452       .  S
C280       C1235   1.472       .  S
N281        N287   1.319       .  A
N281        N282   1.329       .  A
N281       Mn311   2.257       .  S
N282        C290   1.361   1_554  A
N283        N284   1.316       .  A
N283        N285   1.314       .  A
N283       Mn289   2.161       .  S
N284        C291   1.344       .  A
N285        N286   1.330       .  A
N285       Mn311   2.253       .  S
N286        C291   1.364       .  A
N287        N288   1.318       .  A
N287       Mn289   2.184       .  S
N288        C290   1.345   1_554  A
Mn289      Cl313   2.511       .  S
C290       C1277   1.483       .  S
C291       C1610   1.500       .  S
N292        N293   1.324       .  A
N292        N298   1.310       .  A
N292       Mn300   2.186       .  S
N293        C301   1.354       .  A
N294        N296   1.315       .  A
N294        N295   1.317       .  A
N294       Mn312   2.174       .  S
N295        C302   1.346       .  A
N296        N297   1.329       .  A
N296       Mn300   2.250       .  S
N297        C302   1.362       .  A
N298        N299   1.324       .  A
N298       Mn312   2.210       .  S
N299        C301   1.351       .  A
Mn300      Cl313   2.553       .  S
C301       C1389   1.498       .  S
C302       C1288   1.482       .  S
N303        N304   1.320       .  A
N303        N309   1.314       .  A
N303       Mn311   2.145       .  S
N304        C314   1.348       .  A
N305        N306   1.310       .  A
N305        N307   1.311       .  A
N305       Mn312   2.174       .  S
N306        C315   1.328       .  A
N307        N308   1.334       .  A
N307       Mn311   2.275       .  S
N308        C315   1.367       .  A
N309        N310   1.329       .  A
N309       Mn312   2.300       .  S
N310        C314   1.356       .  A
Mn311      Cl313   2.564       .  S
Mn312      Cl313   2.455       .  S
C314       C1302   1.490       .  S
C315       C1260   1.489       .  S
N316        N317   1.315       .  A
N316        N322   1.315       .  A
N316       Mn345   2.171       .  S
N317        C324   1.349       .  A
N318        N320   1.313       .  A
N318        N319   1.323       .  A
N318       Mn334   2.176       .  S
N319        C325   1.351       .  A
N320        N321   1.317       .  A
N320       Mn345   2.221       .  S
N321        C325   1.357       .  A
N322        N323   1.316       .  A
N322       Mn334   2.190       .  S
N323        C324   1.349       .  A
C324       C1190   1.454       .  S
C325       C1176   1.480       .  S
N326        N332   1.319       .  A
N326        N327   1.329       .  A
N326       Mn356   2.260       .  S
N327        C335   1.362       .  A
N328        N329   1.316       .  A
N328        N330   1.315       .  A
N328       Mn334   2.162       .  S
N329        C336   1.342       .  A
N330        N331   1.335       .  A
N330       Mn356   2.273       .  S
N331        C336   1.366       .  A
N332        N333   1.316       .  A
N332       Mn334   2.177       .  S
N333        C335   1.344       .  A
Mn334      Cl358   2.536       .  S
C335       C1291   1.481       .  S
C336       C1512   1.499       .  S
N337        N338   1.321       .  A
N337        N343   1.315       .  A
N337       Mn345   2.182       .  S
N338        C346   1.350       .  A
N339        N341   1.312       .  A
N339        N340   1.317       .  A
N339       Mn357   2.165       .  S
N340        C347   1.345       .  A
N341        N342   1.329       .  A
N341       Mn345   2.242       .  S
N342        C347   1.362       .  A
N343        N344   1.331       .  A
N343       Mn357   2.242       .  S
N344        C346   1.358       .  A
Mn345      Cl358   2.549       .  S
C346       C1333   1.511       .  S
C347       C1274   1.483       .  S
N348        N349   1.314       .  A
N348        N354   1.316       .  A
N348       Mn356   2.163       .  S
N349        C359   1.343       .  A
N350        N351   1.307       .  A
N350        N352   1.314       .  A
N350       Mn357   2.122       .  S
N351        C360   1.328       .  A
N352        N353   1.340       .  A
N352       Mn356   2.310       .  S
N353        C360   1.379       .  A
N354        N355   1.334       .  A
N354       Mn357   2.295       .  S
N355        C359   1.372       .  A
Mn356      Cl358   2.554       .  S
Mn357      Cl358   2.496       .  S
C359       C1218   1.502       .  S
C360       C1207   1.503       .  S
N361        N362   1.330       .  A
N361        N367   1.316       .  A
N361       Mn390   2.264       .  S
N362        C369   1.364       .  A
N363        N365   1.325       .  A
N363        N364   1.322       .  A
N363       Mn379   2.250       .  S
N364        C370   1.352       .  A
N365        N366   1.328       .  A
N365       Mn390   2.243       .  S
N366        C370   1.358       .  A
N367        N368   1.319       .  A
N367       Mn379   2.174       .  S
N368        C369   1.349       .  A
C369       C1809   1.505       .  S
C370       C1148   1.492       .  S
N371        N377   1.311       .  A
N371        N372   1.320   1_565  A
N371       Mn401   2.211       .  S
N372        C380   1.359   1_545  A
N373        N374   1.330       .  A
N373        N375   1.319       .  A
N373       Mn379   2.280       .  S
N374        C381   1.367       .  A
N375        N376   1.322       .  A
N375       Mn401   2.200       .  S
N376        C381   1.350       .  A
N377        N378   1.321       .  A
N377       Mn379   2.174       .  S
N378        C380   1.349       .  A
Mn379      Cl403   2.531       .  S
C380       C1263   1.490   1_565  S
C381       C1319   1.505       .  S
N382        N383   1.340       .  A
N382        N388   1.315       .  A
N382       Mn390   2.302       .  S
N383        C391   1.371       .  A
N384        N386   1.318       .  A
N384        N385   1.329       .  A
N384       Mn402   2.285       .  S
N385        C392   1.362       .  A
N386        N387   1.311       .  A
N386       Mn390   2.140       .  S
N387        C392   1.342       .  A
N388        N389   1.316       .  A
N388       Mn402   2.153       .  S
N389        C391   1.336       .  A
Mn390      Cl403   2.562       .  S
C391       C1123   1.510       .  S
C392       C1162   1.478       .  S
N393        N394   1.329       .  A
N393        N399   1.312       .  A
N393       Mn401   2.239       .  S
N394        C404   1.360       .  A
N395        N396   1.325       .  A
N395        N397   1.316       .  A
N395       Mn402   2.230       .  S
N396        C405   1.356   1_565  A
N397        N398   1.330   1_565  A
N397       Mn401   2.223       .  S
N398        C405   1.357       .  A
N399        N400   1.319       .  A
N399       Mn402   2.166       .  S
N400        C404   1.345       .  A
Mn401      Cl403   2.561       .  S
Mn402      Cl403   2.514       .  S
C404       C1134   1.482       .  S
C405       C1109   1.513       .  S
N406        N407   1.326       .  A
N406        N412   1.315       .  A
N406       Mn435   2.239       .  S
N407        C414   1.358       .  A
N408        N410   1.324       .  A
N408        N409   1.320       .  A
N408       Mn424   2.231       .  S
N409        C415   1.349       .  A
N410        N411   1.326       .  A
N410       Mn435   2.237       .  S
N411        C415   1.358       .  A
N412        N413   1.313       .  A
N412       Mn424   2.142       .  S
N413        C414   1.343       .  A
C414       C1697   1.474       .  S
C415       C1137   1.480       .  S
N416        N422   1.311       .  A
N416        N417   1.326   1_565  A
N416       Mn446   2.242       .  S
N417        C425   1.364   1_545  A
N418        N419   1.329       .  A
N418        N420   1.317       .  A
N418       Mn424   2.272       .  S
N419        C426   1.366       .  A
N420        N421   1.325       .  A
N420       Mn446   2.206       .  S
N421        C426   1.353       .  A
N422        N423   1.320       .  A
N422       Mn424   2.163       .  S
N423        C425   1.346       .  A
Mn424      Cl448   2.523       .  S
C425       C1204   1.500   1_565  S
C426       C1375   1.511       .  S
N427        N428   1.339       .  A
N427        N433   1.315       .  A
N427       Mn435   2.291       .  S
N428        C436   1.369       .  A
N429        N431   1.318       .  A
N429        N430   1.333       .  A
N429       Mn447   2.304       .  S
N430        C437   1.369       .  A
N431        N432   1.312       .  A
N431       Mn435   2.145       .  S
N432        C437   1.344       .  A
N433        N434   1.315       .  A
N433       Mn447   2.164       .  S
N434        C436   1.338       .  A
Mn435      Cl448   2.564       .  S
C436       C1081   1.513       .  S
C437       C1092   1.495       .  S
N438        N439   1.330       .  A
N438        N444   1.315       .  A
N438       Mn446   2.251       .  S
N439        C449   1.362       .  A
N440        N441   1.327       .  A
N440        N442   1.316       .  A
N440       Mn447   2.242       .  S
N441        C450   1.357   1_565  A
N442        N443   1.327   1_565  A
N442       Mn446   2.205       .  S
N443        C450   1.352       .  A
N444        N445   1.319       .  A
N444       Mn447   2.177       .  S
N445        C449   1.346       .  A
Mn446      Cl448   2.564       .  S
Mn447      Cl448   2.498       .  S
C449       C1151   1.488   1_556  S
C450       C1064   1.505       .  S
N451        N452   1.318       .  A
N451        N457   1.310       .  A
N451       Mn480   2.186       .  S
N452        C459   1.351       .  A
N453        N455   1.325       .  A
N453        N454   1.321       .  A
N453       Mn469   2.233       .  S
N454        C460   1.352       .  A
N455        N456   1.327       .  A
N455       Mn480   2.252       .  S
N456        C460   1.360       .  A
N457        N458   1.314       .  A
N457       Mn469   2.147       .  S
N458        C459   1.348       .  A
C459       C1599   1.471       .  S
C460       C1036   1.491   1_554  S
N461        N467   1.311       .  A
N461        N462   1.309       .  A
N461       Mn491   2.160       .  S
N462        C470   1.347       .  A
N463        N464   1.326       .  A
N463        N465   1.321       .  A
N463       Mn469   2.247       .  S
N464        C471   1.358       .  A
N465        N466   1.325       .  A
N465       Mn491   2.234       .  S
N466        C471   1.357       .  A
N467        N468   1.322       .  A
N467       Mn469   2.172       .  S
N468        C470   1.351       .  A
Mn469      Cl493   2.532       .  S
C470       C1022   1.473       .  S
C471       C1736   1.495       .  S
N472        N473   1.338       .  A
N472        N478   1.313       .  A
N472       Mn480   2.263       .  S
N473        C481   1.364       .  A
N474        N476   1.318       .  A
N474        N475   1.334       .  A
N474       Mn492   2.303       .  S
N475        C482   1.369       .  A
N476        N477   1.311       .  A
N476       Mn480   2.149       .  S
N477        C482   1.343       .  A
N478        N479   1.313       .  A
N478       Mn492   2.174       .  S
N479        C481   1.336       .  A
Mn480      Cl493   2.538       .  S
C481       C1106   1.516       .  S
C482       C1305   1.487       .  S
N483        N484   1.326       .  A
N483        N489   1.312       .  A
N483       Mn491   2.221       .  S
N484        C494   1.358       .  A
N485        N486   1.333       .  A
N485        N487   1.318       .  A
N485       Mn492   2.255       .  S
N486        C495   1.360       .  A
N487        N488   1.335       .  A
N487       Mn491   2.246       .  S
N488        C495   1.360       .  A
N489        N490   1.326       .  A
N489       Mn492   2.207       .  S
N490        C494   1.355       .  A
Mn491      Cl493   2.536       .  S
Mn492      Cl493   2.501       .  S
C494       C1050   1.500       .  S
C495       C1008   1.532       .  S
N496        N497   1.318       .  A
N496        N502   1.309       .  A
N496       Mn525   2.191       .  S
N497        C504   1.353       .  A
N498        N500   1.325       .  A
N498        N499   1.322       .  A
N498       Mn514   2.240       .  S
N499        C505   1.353       .  A
N500        N501   1.329       .  A
N500       Mn525   2.260       .  S
N501        C505   1.363       .  A
N502        N503   1.316       .  A
N502       Mn514   2.149       .  S
N503        C504   1.349       .  A
C504       C1501   1.475       .  S
C505       C1053   1.500       .  S
N506        N512   1.309       .  A
N506        N507   1.309       .  A
N506       Mn536   2.164       .  S
N507        C515   1.349       .  A
N508        N509   1.326       .  A
N508        N510   1.319       .  A
N508       Mn514   2.255       .  S
N509        C516   1.362       .  A
N510        N511   1.322       .  A
N510       Mn536   2.207       .  S
N511        C516   1.351       .  A
N512        N513   1.318       .  A
N512       Mn514   2.150       .  S
N513        C515   1.348       .  A
Mn514      Cl538   2.538       .  S
C515        C997   1.465       .  S
C516       C1627   1.488       .  S
N517        N518   1.336       .  A
N517        N523   1.316       .  A
N517       Mn525   2.269       .  S
N518        C526   1.364       .  A
N519        N521   1.316       .  A
N519        N520   1.333       .  A
N519       Mn537   2.307       .  S
N520        C527   1.371       .  A
N521        N522   1.310       .  A
N521       Mn525   2.154       .  S
N522        C527   1.345       .  A
N523        N524   1.316       .  A
N523       Mn537   2.167       .  S
N524        C526   1.340       .  A
Mn525      Cl538   2.525       .  S
C526       C1067   1.511       .  S
C527       C1221   1.487       .  S
N528        N529   1.325       .  A
N528        N534   1.311       .  A
N528       Mn536   2.202       .  S
N529        C539   1.354       .  A
N530        N531   1.337       .  A
N530        N532   1.318       .  A
N530       Mn537   2.283       .  S
N531        C540   1.366       .  A
N532        N533   1.329       .  A
N532       Mn536   2.214       .  S
N533        C540   1.353       .  A
N534        N535   1.325       .  A
N534       Mn537   2.208       .  S
N535        C539   1.355       .  A
Mn536      Cl538   2.531       .  S
Mn537      Cl538   2.509       .  S
C539       C1039   1.494       .  S
C540        C983   1.528       .  S
N541        N542   1.308       .  A
N541        N547   1.315       .  A
N541       Mn570   2.169       .  S
N542        C549   1.344       .  A
N543        N545   1.316   1_556  A
N543        N544   1.329   1_455  A
N543       Mn559   2.242       .  S
N544        C550   1.363   1_556  A
N545        N546   1.317       .  A
N545       Mn570   2.160       .  S
N546        C550   1.341   1_455  A
N547        N548   1.323       .  A
N547       Mn559   2.204   1_554  S
N548        C549   1.358       .  A
C549       C1025   1.468   1_455  S
C550        C966   1.497       .  S
N551        N557   1.323       .  A
N551        N552   1.308       .  A
N551       Mn581   2.177       .  S
N552        C560   1.342       .  A
N553        N554   1.321       .  A
N553        N555   1.317       .  A
N553       Mn559   2.200       .  S
N554        C561   1.353       .  A
N555        N556   1.328       .  A
N555       Mn581   2.238       .  S
N556        C561   1.359       .  A
N557        N558   1.322       .  A
N557       Mn559   2.225       .  S
N558        C560   1.358       .  A
Mn559      Cl583   2.559   1_556  S
C560        C941   1.480       .  S
C561       C1666   1.505       .  S
N562        N563   1.322       .  A
N562        N568   1.310       .  A
N562       Mn570   2.200       .  S
N563        C571   1.359       .  A
N564        N566   1.313       .  A
N564        N565   1.321       .  A
N564       Mn582   2.159       .  S
N565        C572   1.348       .  A
N566        N567   1.310       .  A
N566       Mn570   2.159       .  S
N567        C572   1.338       .  A
N568        N569   1.317       .  A
N568       Mn582   2.179       .  S
N569        C571   1.350       .  A
Mn570      Cl583   2.485       .  S
C571       C1442   1.484       .  S
C572        C952   1.451       .  S
N573        N574   1.312       .  A
N573        N579   1.316   1_556  A
N573       Mn581   2.158       .  S
N574        C584   1.346   1_556  A
N575        N576   1.303       .  A
N575        N577   1.307   1_554  A
N575       Mn582   2.139       .  S
N576        C585   1.335   1_554  A
N577        N578   1.333       .  A
N577       Mn581   2.233       .  S
N578        C585   1.365       .  A
N579        N580   1.329       .  A
N579       Mn582   2.256       .  S
N580        C584   1.360       .  A
Mn581      Cl583   2.523   1_556  S
Mn582      Cl583   2.513       .  S
C584        C924   1.480       .  S
C585       C1232   1.480       .  S
N586        N587   1.304       .  A
N586        N592   1.313       .  A
N586       Mn615   2.155       .  S
N587        C594   1.341       .  A
N588        N590   1.319       .  A
N588        N589   1.329   1_455  A
N588       Mn604   2.233       .  S
N589        C595   1.357       .  A
N590        N591   1.315       .  A
N590       Mn615   2.157       .  S
N591        C595   1.339   1_455  A
N592        N593   1.322       .  A
N592       Mn604   2.193       .  S
N593        C594   1.359       .  A
C594        C994   1.465   1_455  S
C595        C910   1.471       .  S
N596        N602   1.322       .  A
N596        N597   1.311       .  A
N596       Mn626   2.177       .  S
N597        C605   1.343       .  A
N598        N599   1.327       .  A
N598        N600   1.311       .  A
N598       Mn604   2.213       .  S
N599        C606   1.359       .  A
N600        N601   1.322       .  A
N600       Mn626   2.205       .  S
N601        C606   1.353       .  A
N602        N603   1.322       .  A
N602       Mn604   2.231       .  S
N603        C605   1.357       .  A
Mn604      Cl628   2.574       .  S
C605        C955   1.459       .  S
C606       C1778   1.497       .  S
N607        N608   1.326       .  A
N607        N613   1.311       .  A
N607       Mn615   2.220       .  S
N608        C616   1.363       .  A
N609        N611   1.311       .  A
N609        N610   1.322       .  A
N609       Mn627   2.184       .  S
N610        C617   1.359       .  A
N611        N612   1.309       .  A
N611       Mn615   2.160       .  S
N612        C617   1.342       .  A
N613        N614   1.316       .  A
N613       Mn627   2.179       .  S
N614        C616   1.348       .  A
Mn615      Cl628   2.459       .  S
C616       C1361   1.494       .  S
C617        C938   1.478       .  S
N618        N619   1.304       .  A
N618        N624   1.313       .  A
N618       Mn626   2.136       .  S
N619        C629   1.331       .  A
N620        N621   1.303       .  A
N620        N622   1.307       .  A
N620       Mn627   2.121       .  S
N621        C630   1.333       .  A
N622        N623   1.336       .  A
N622       Mn626   2.269       .  S
N623        C630   1.367       .  A
N624        N625   1.333       .  A
N624       Mn627   2.271       .  S
N625        C629   1.365       .  A
Mn626      Cl628   2.472       .  S
Mn627      Cl628   2.547       .  S
C629        C896   1.483       .  S
C630       C1179   1.488       .  S
N631        N632   1.321       .  A
N631        N637   1.313       .  A
N631       Mn660   2.206       .  S
N632        C639   1.350       .  A
N633        N635   1.325       .  A
N633        N634   1.314       .  A
N633       Mn649   2.221       .  S
N634        C640   1.347       .  A
N635        N636   1.328       .  A
N635       Mn660   2.246       .  S
N636        C640   1.364       .  A
N637        N638   1.324       .  A
N637       Mn649   2.194       .  S
N638        C639   1.357       .  A
C639       C1431   1.489       .  S
C640        C854   1.493       .  S
N641        N647   1.312       .  A
N641        N642   1.320       .  A
N641       Mn671   2.210   1_556  S
N642        C650   1.355       .  A
N643        N644   1.331       .  A
N643        N645   1.317       .  A
N643       Mn649   2.261   1_554  S
N644        C651   1.365       .  A
N645        N646   1.318       .  A
N645       Mn671   2.201       .  S
N646        C651   1.353       .  A
N647        N648   1.326       .  A
N647       Mn649   2.210       .  S
N648        C650   1.357       .  A
Mn649      Cl673   2.532       .  S
C650        C882   1.504       .  S
C651       C1526   1.511       .  S
N652        N653   1.343   1_565  A
N652        N658   1.314       .  A
N652       Mn660   2.333       .  S
N653        C661   1.371       .  A
N654        N656   1.314       .  A
N654        N655   1.336       .  A
N654       Mn672   2.326       .  S
N655        C662   1.371       .  A
N656        N657   1.305       .  A
N656       Mn660   2.107   1_554  S
N657        C662   1.329       .  A
N658        N659   1.321       .  A
N658       Mn672   2.136   1_556  S
N659        C661   1.337   1_565  A
Mn660      Cl673   2.521       .  S
C661       C1011   1.531   1_556  S
C662        C969   1.483   1_565  S
N663        N664   1.327       .  A
N663        N669   1.314       .  A
N663       Mn671   2.231       .  S
N664        C674   1.360       .  A
N665        N666   1.330   1_554  A
N665        N667   1.318   1_554  A
N665       Mn672   2.252       .  S
N666        C675   1.359       .  A
N667        N668   1.326       .  A
N667       Mn671   2.210   1_556  S
N668        C675   1.352       .  A
N669        N670   1.317       .  A
N669       Mn672   2.172       .  S
N670        C674   1.346       .  A
Mn671      Cl673   2.544   1_554  S
Mn672      Cl673   2.521   1_554  S
C674        C871   1.480       .  S
C675       C1078   1.509       .  S
N676        N677   1.323       .  A
N676        N682   1.310       .  A
N676       Mn705   2.212       .  S
N677        C684   1.353       .  A
N678        N680   1.326       .  A
N678        N679   1.317       .  A
N678       Mn694   2.233       .  S
N679        C685   1.347       .  A
N680        N681   1.326       .  A
N680       Mn705   2.237       .  S
N681        C685   1.361       .  A
N682        N683   1.320       .  A
N682       Mn694   2.163       .  S
N683        C684   1.352       .  A
C684       C1347   1.478       .  S
C685        C868   1.479       .  S
N686        N692   1.313       .  A
N686        N687   1.328       .  A
N686       Mn716   2.238       .  S
N687        C695   1.363       .  A
N688        N689   1.331       .  A
N688        N690   1.317       .  A
N688       Mn694   2.255       .  S
N689        C696   1.366       .  A
N690        N691   1.320       .  A
N690       Mn716   2.216       .  S
N691        C696   1.353       .  A
N692        N693   1.316       .  A
N692       Mn694   2.164       .  S
N693        C695   1.343       .  A
Mn694      Cl718   2.538       .  S
C695        C843   1.479       .  S
C696       C1459   1.513       .  S
N697        N698   1.344   1_565  A
N697        N703   1.314       .  A
N697       Mn705   2.339       .  S
N698        C706   1.373       .  A
N699        N701   1.309       .  A
N699        N700   1.342       .  A
N699       Mn717   2.338       .  S
N700        C707   1.379       .  A
N701        N702   1.295       .  A
N701       Mn705   2.106       .  S
N702        C707   1.328       .  A
N703        N704   1.321       .  A
N703       Mn717   2.138       .  S
N704        C706   1.338   1_565  A
Mn705      Cl718   2.495       .  S
C706        C980   1.533       .  S
C707        C913   1.507   1_565  S
N708        N709   1.328       .  A
N708        N714   1.314       .  A
N708       Mn716   2.248       .  S
N709        C719   1.364       .  A
N710        N711   1.330       .  A
N710        N712   1.320       .  A
N710       Mn717   2.251       .  S
N711        C720   1.358       .  A
N712        N713   1.327       .  A
N712       Mn716   2.221       .  S
N713        C720   1.352       .  A
N714        N715   1.317       .  A
N714       Mn717   2.164       .  S
N715        C719   1.344       .  A
Mn716      Cl718   2.533       .  S
Mn717      Cl718   2.533       .  S
C719        C857   1.498       .  S
C720       C1120   1.504       .  S
N721        N722   1.326       .  A
N721        N727   1.312       .  A
N721       Mn750   2.228       .  S
N722        C729   1.359       .  A
N723        N725   1.312       .  A
N723        N724   1.301       .  A
N723       Mn739   2.133       .  S
N724        C730   1.336       .  A
N725        N726   1.328       .  A
N725       Mn750   2.214       .  S
N726        C730   1.365       .  A
N727        N728   1.316       .  A
N727       Mn739   2.171       .  S
N728        C729   1.351       .  A
C729       C1165   1.495       .  S
C730        C812   1.470       .  S
N731        N737   1.310       .  A
N731        N732   1.324       .  A
N731       Mn761   2.221       .  S
N732        C740   1.364       .  A
N733        N734   1.313       .  A
N733        N735   1.317       .  A
N733       Mn739   2.161       .  S
N734        C741   1.344       .  A
N735        N736   1.313       .  A
N735       Mn761   2.165       .  S
N736        C741   1.344       .  A
N737        N738   1.313       .  A
N737       Mn739   2.147       .  S
N738        C740   1.342       .  A
Mn739      Cl763   2.458       .  S
C740        C899   1.477       .  S
C741       C1792   1.449       .  S
N742        N743   1.337       .  A
N742        N748   1.309       .  A
N742       Mn750   2.284       .  S
N743        C751   1.371       .  A
N744        N746   1.310       .  A
N744        N745   1.332       .  A
N744       Mn762   2.290       .  S
N745        C752   1.365       .  A
N746        N747   1.305       .  A
N746       Mn750   2.089       .  S
N747        C752   1.335       .  A
N748        N749   1.306       .  A
N748       Mn762   2.160       .  S
N749        C751   1.325       .  A
Mn750      Cl763   2.575       .  S
C751       C1557   1.486       .  S
C752        C840   1.468       .  S
N753        N754   1.323       .  A
N753        N759   1.317       .  A
N753       Mn761   2.226       .  S
N754        C764   1.358       .  A
N755        N756   1.317       .  A
N755        N757   1.307       .  A
N755       Mn762   2.184       .  S
N756        C765   1.346       .  A
N757        N758   1.318       .  A
N757       Mn761   2.151       .  S
N758        C765   1.350       .  A
N759        N760   1.313       .  A
N759       Mn762   2.172       .  S
N760        C764   1.348       .  A
Mn761      Cl763   2.557       .  S
Mn762      Cl763   2.435       .  S
C764        C829   1.468       .  S
C765       C1246   1.452       .  S
N766        N767   1.325       .  A
N766        N772   1.317       .  A
N766       Mn795   2.221       .  S
N767        C774   1.357       .  A
N768        N770   1.309       .  A
N768        N769   1.316       .  A
N768       Mn784   2.171       .  S
N769        C775   1.349       .  A
N770        N771   1.315       .  A
N770       Mn795   2.158       .  S
N771        C775   1.349       .  A
N772        N773   1.318       .  A
N772       Mn784   2.207       .  S
N773        C774   1.354       .  A
C774        C927   1.490       .  S
C775       C1193   1.458       .  S
N776        N782   1.319       .  A
N776        N777   1.320       .  A
N776       Mn806   2.203       .  S
N777        C785   1.352       .  A
N778        N779   1.317       .  A
N778        N780   1.314       .  A
N778       Mn784   2.172       .  S
N779        C786   1.348       .  A
N780        N781   1.330       .  A
N780       Mn806   2.254       .  S
N781        C786   1.363       .  A
N782        N783   1.315       .  A
N782       Mn784   2.181       .  S
N783        C785   1.345       .  A
Mn784      Cl808   2.514       .  S
C785        C815   1.452       .  S
C786       C1683   1.500       .  S
N787        N788   1.329       .  A
N787        N793   1.318       .  A
N787       Mn795   2.222       .  S
N788        C796   1.354       .  A
N789        N791   1.312       .  A
N789        N790   1.320       .  A
N789       Mn807   2.185       .  S
N790        C797   1.352   1_556  A
N791        N792   1.317       .  A
N791       Mn795   2.176       .  S
N792        C797   1.349   1_556  A
N793        N794   1.329       .  A
N793       Mn807   2.237       .  S
N794        C796   1.355       .  A
Mn795      Cl808   2.562       .  S
C796       C1487   1.505       .  S
C797        C826   1.474       .  S
N798        N799   1.314       .  A
N798        N804   1.319       .  A
N798       Mn806   2.171       .  S
N799        C809   1.348       .  A
N800        N801   1.310       .  A
N800        N802   1.312       .  A
N800       Mn807   2.151       .  S
N801        C810   1.339       .  A
N802        N803   1.331       .  A
N802       Mn806   2.255       .  S
N803        C810   1.367       .  A
N804        N805   1.331       .  A
N804       Mn807   2.278       .  S
N805        C809   1.365       .  A
Mn806      Cl808   2.567       .  S
Mn807      Cl808   2.502       .  S
C809       C1095   1.491       .  S
C810        C885   1.479       .  S
C811        C812   1.408       .  A
C811        C816   1.383       .  A
C811        H818   1.083       .  S
C812        C813   1.404       .  A
C813        C814   1.408       .  A
C813        N820   1.433       .  S
C814        C815   1.408       .  A
C814        H819   1.083       .  S
C815        C816   1.402       .  A
C816        N817   1.440       .  S
N817        O821   1.263       .  A
N817        O822   1.262       .  A
N820        O823   1.260       .  A
N820        O824   1.263       .  A
C825        C826   1.401       .  A
C825        C830   1.403       .  A
C825        H832   1.083       .  S
C826        C827   1.412       .  A
C827        C828   1.396       .  A
C827        N834   1.429       .  S
C828        C829   1.400       .  A
C828        H833   1.084       .  S
C829        C830   1.416       .  A
C830        N831   1.442       .  S
N831        O835   1.263       .  A
N831        O836   1.263       .  A
N834        O837   1.262       .  A
N834        O838   1.262       .  A
C839        C840   1.405       .  A
C839        C844   1.412       .  A
C839        H846   1.083       .  S
C840        C841   1.414       .  A
C841        C842   1.404       .  A
C841        N848   1.439       .  S
C842        C843   1.402       .  A
C842        H847   1.084       .  S
C843        C844   1.418       .  A
C844        N845   1.445       .  S
N845        O849   1.263       .  A
N845        O850   1.261       .  A
N848        O851   1.262       .  A
N848        O852   1.263       .  A
C853        C854   1.401       .  A
C853        C858   1.409       .  A
C853        H860   1.082       .  S
C854        C855   1.419       .  A
C855        C856   1.403       .  A
C855        N862   1.436       .  S
C856        C857   1.400       .  A
C856        H861   1.073       .  S
C857        C858   1.425       .  A
C858        N859   1.436       .  S
N859        O863   1.262       .  A
N859        O864   1.263       .  A
N862        O865   1.262       .  A
N862        O866   1.263       .  A
C867        C868   1.406       .  A
C867        C872   1.406       .  A
C867        H874   1.084       .  S
C868        C869   1.416       .  A
C869        C870   1.409       .  A
C869        N876   1.444       .  S
C870        C871   1.407       .  A
C870        H875   1.084       .  S
C871        C872   1.412       .  A
C872        N873   1.440       .  S
N873        O877   1.263       .  A
N873        O878   1.263       .  A
N876        O879   1.263       .  A
N876        O880   1.263       .  A
C881        C882   1.410       .  A
C881        C886   1.419       .  A
C881        H888   1.083       .  S
C882        C883   1.416       .  A
C883        C884   1.400       .  A
C883        N890   1.428       .  S
C884        C885   1.402       .  A
C884        H889   1.086       .  S
C885        C886   1.418       .  A
C886        N887   1.444       .  S
N887        O891   1.263       .  A
N887        O892   1.263       .  A
N890        O893   1.259       .  A
N890        O894   1.262       .  A
C895        C896   1.398       .  A
C895        C900   1.411       .  A
C895        H902   1.083       .  S
C896        C897   1.429       .  A
C897        C898   1.389       .  A
C897        N904   1.436       .  S
C898        C899   1.388       .  A
C898        H903   1.084       .  S
C899        C900   1.424       .  A
C900        N901   1.438       .  S
N901        O905   1.263       .  A
N901        O906   1.263       .  A
N904        O907   1.263       .  A
N904        O908   1.259       .  A
C909        C910   1.415       .  A
C909        C914   1.420       .  A
C909        H916   1.083       .  S
C910        C911   1.401       .  A
C911        C912   1.393       .  A
C911        N918   1.446       .  S
C912        C913   1.423       .  A
C912        H917   1.082   1_545  S
C913        C914   1.411       .  A
C914        N915   1.435       .  S
N915        O919   1.263       .  A
N915        O920   1.262       .  A
N918        O921   1.262       .  A
N918        O922   1.263       .  A
C923        C924   1.404       .  A
C923        C928   1.411   1_554  A
C923        H930   1.084       .  S
C924        C925   1.411   1_554  A
C925        C926   1.400       .  A
C925        N932   1.439       .  S
C926        C927   1.404       .  A
C926        H931   1.084       .  S
C927        C928   1.420       .  A
C928        N929   1.434   1_556  S
N929        O933   1.263       .  A
N929        O934   1.262   1_554  A
N932        O935   1.263       .  A
N932        O936   1.262       .  A
C937        C938   1.411       .  A
C937        C942   1.400       .  A
C937        H944   1.084       .  S
C938        C939   1.408       .  A
C939        C940   1.397       .  A
C939        N946   1.437       .  S
C940        C941   1.411       .  A
C940        H945   1.084       .  S
C941        C942   1.410       .  A
C942        N943   1.438       .  S
N943        O947   1.263       .  A
N943        O948   1.263       .  A
N946        O949   1.263       .  A
N946        O950   1.263       .  A
C951        C952   1.385       .  A
C951        C956   1.387       .  A
C951        H958   1.085       .  S
C952        C953   1.420       .  A
C953        C954   1.404       .  A
C953        N960   1.437       .  S
C954        C955   1.396       .  A
C954        H959   1.084       .  S
C955        C956   1.411       .  A
C956        N957   1.424       .  S
N957        O961   1.260       .  A
N957        O962   1.262       .  A
N960        O963   1.262       .  A
N960        O964   1.263       .  A
C965        C966   1.396   1_556  A
C965        C970   1.399   1_556  A
C965        H972   1.084       .  S
C966        C967   1.428       .  A
C967        C968   1.411       .  A
C967        N974   1.433       .  S
C968        C969   1.397       .  A
C968        H973   1.084       .  S
C969        C970   1.425       .  A
C970        N971   1.432   1_554  S
N971        O975   1.262       .  A
N971        O976   1.263       .  A
N974        O977   1.261       .  A
N974        O978   1.262       .  A
C979        C980   1.417       .  A
C979        C984   1.423       .  A
C979        H986   1.082   1_545  S
C980        C981   1.426       .  A
C981        C982   1.435       .  A
C981        N988   1.444       .  S
C982        C983   1.416       .  A
C982        H987   1.083       .  S
C983        C984   1.417       .  A
C984        N985   1.441       .  S
N985        O989   1.263   1_545  A
N985        O990   1.263       .  A
N988        O991   1.262       .  A
N988        O992   1.262       .  A
C993        C994   1.402       .  A
C993        C998   1.402       .  A
C993       H1000   1.084       .  S
C994        C995   1.416       .  A
C995        C996   1.378       .  A
C995       N1002   1.436       .  S
C996        C997   1.399       .  A
C996       H1001   1.084       .  S
C997        C998   1.415       .  A
C998        N999   1.435       .  S
N999       O1003   1.263       .  A
N999       O1004   1.262       .  A
N1002      O1005   1.262   1_655  A
N1002      O1006   1.263       .  A
C1007      C1008   1.418       .  A
C1007      C1012   1.432       .  A
C1007      H1014   1.079       .  S
C1008      C1009   1.423       .  A
C1009      C1010   1.424       .  A
C1009      N1016   1.443       .  S
C1010      C1011   1.415       .  A
C1010      H1015   1.082   1_545  S
C1011      C1012   1.416       .  A
C1012      N1013   1.436   1_554  S
N1013      O1017   1.261       .  A
N1013      O1018   1.262       .  A
N1016      O1019   1.262       .  A
N1016      O1020   1.263   1_545  A
C1021      C1022   1.399       .  A
C1021      C1026   1.380       .  A
C1021      H1028   1.084       .  S
C1022      C1023   1.416       .  A
C1023      C1024   1.407       .  A
C1023      N1030   1.435       .  S
C1024      C1025   1.403       .  A
C1024      H1029   1.084       .  S
C1025      C1026   1.415       .  A
C1026      N1027   1.432       .  S
N1027      O1031   1.262       .  A
N1027      O1032   1.261       .  A
N1030      O1033   1.263       .  A
N1030      O1034   1.262       .  A
C1035      C1036   1.403       .  A
C1035      C1040   1.415       .  A
C1035      H1042   1.083       .  S
C1036      C1037   1.418       .  A
C1037      C1038   1.411       .  A
C1037      N1044   1.441       .  S
C1038      C1039   1.403       .  A
C1038      H1043   1.083       .  S
C1039      C1040   1.422       .  A
C1040      N1041   1.445       .  S
N1041      O1045   1.262       .  A
N1041      O1046   1.263       .  A
N1044      O1047   1.262   1_556  A
N1044      O1048   1.263       .  A
C1049      C1050   1.409       .  A
C1049      C1054   1.418       .  A
C1049      H1056   1.083       .  S
C1050      C1051   1.415       .  A
C1051      C1052   1.410       .  A
C1051      N1058   1.438       .  S
C1052      C1053   1.407       .  A
C1052      H1057   1.084       .  S
C1053      C1054   1.420       .  A
C1054      N1055   1.443       .  S
N1055      O1059   1.263       .  A
N1055      O1060   1.263       .  A
N1058      O1061   1.263       .  A
N1058      O1062   1.263       .  A
C1063      C1064   1.416       .  A
C1063      C1068   1.428       .  A
C1063      H1070   1.083       .  S
C1064      C1065   1.408       .  A
C1065      C1066   1.404       .  A
C1065      N1072   1.434       .  S
C1066      C1067   1.413       .  A
C1066      H1071   1.084       .  S
C1067      C1068   1.421       .  A
C1068      N1069   1.443       .  S
N1069      O1073   1.263       .  A
N1069      O1074   1.262       .  A
N1072      O1075   1.262       .  A
N1072      O1076   1.262       .  A
C1077      C1078   1.416       .  A
C1077      C1082   1.428       .  A
C1077      H1084   1.083       .  S
C1078      C1079   1.417       .  A
C1079      C1080   1.412       .  A
C1079      N1086   1.444       .  S
C1080      C1081   1.414       .  A
C1080      H1085   1.084       .  S
C1081      C1082   1.420       .  A
C1082      N1083   1.443       .  S
N1083      O1087   1.263       .  A
N1083      O1088   1.262       .  A
N1086      O1089   1.261       .  A
N1086      O1090   1.263       .  A
C1091      C1092   1.405       .  A
C1091      C1096   1.407       .  A
C1091      H1098   1.084       .  S
C1092      C1093   1.410       .  A
C1093      C1094   1.415       .  A
C1093      N1100   1.427       .  S
C1094      C1095   1.405       .  A
C1094      H1099   1.080       .  S
C1095      C1096   1.417       .  A
C1096      N1097   1.442       .  S
N1097      O1101   1.263       .  A
N1097      O1102   1.263       .  A
N1100      O1103   1.261       .  A
N1100      O1104   1.258       .  A
C1105      C1106   1.404       .  A
C1105      C1110   1.419       .  A
C1105      H1112   1.082       .  S
C1106      C1107   1.430       .  A
C1107      C1108   1.403       .  A
C1107      N1114   1.431       .  S
C1108      C1109   1.398       .  A
C1108      H1113   1.084       .  S
C1109      C1110   1.421       .  A
C1110      N1111   1.422       .  S
N1111      O1115   1.262       .  A
N1111      O1116   1.259       .  A
N1114      O1117   1.262       .  A
N1114      O1118   1.262       .  A
C1119      C1120   1.411       .  A
C1119      C1124   1.426       .  A
C1119      H1126   1.086       .  S
C1120      C1121   1.415       .  A
C1121      C1122   1.412       .  A
C1121      N1128   1.443       .  S
C1122      C1123   1.408       .  A
C1122      H1127   1.099       .  S
C1123      C1124   1.421       .  A
C1124      N1125   1.442       .  S
N1125      O1129   1.263       .  A
N1125      O1130   1.262       .  A
N1128      O1131   1.262       .  A
N1128      O1132   1.263       .  A
C1133      C1134   1.403       .  A
C1133      C1138   1.409       .  A
C1133      H1140   1.084       .  S
C1134      C1135   1.422       .  A
C1135      C1136   1.411       .  A
C1135      N1142   1.446       .  S
C1136      C1137   1.402       .  A
C1136      H1141   1.084       .  S
C1137      C1138   1.415       .  A
C1138      N1139   1.442       .  S
N1139      O1143   1.263       .  A
N1139      O1144   1.262       .  A
N1142      O1145   1.262       .  A
N1142      O1146   1.263       .  A
C1147      C1148   1.403       .  A
C1147      C1152   1.413       .  A
C1147      H1154   1.084       .  S
C1148      C1149   1.422       .  A
C1149      C1150   1.413       .  A
C1149      N1156   1.445       .  S
C1150      C1151   1.402       .  A
C1150      H1155   1.083       .  S
C1151      C1152   1.420       .  A
C1152      N1153   1.443       .  S
N1153      O1157   1.263       .  A
N1153      O1158   1.262   1_554  A
N1156      O1159   1.262       .  A
N1156      O1160   1.263       .  A
C1161      C1162   1.404       .  A
C1161      C1166   1.411       .  A
C1161      H1168   1.079       .  S
C1162      C1163   1.410       .  A
C1163      C1164   1.399       .  A
C1163      N1170   1.439       .  S
C1164      C1165   1.408       .  A
C1164      H1169   1.083       .  S
C1165      C1166   1.418       .  A
C1166      N1167   1.434       .  S
N1167      O1171   1.263       .  A
N1167      O1172   1.262       .  A
N1170      O1173   1.263       .  A
N1170      O1174   1.263       .  A
C1175      C1176   1.391       .  A
C1175      C1180   1.381       .  A
C1175      H1182   1.085       .  S
C1176      C1177   1.426       .  A
C1177      C1178   1.421       .  A
C1177      N1184   1.440       .  S
C1178      C1179   1.404       .  A
C1178      H1183   1.083       .  S
C1179      C1180   1.423       .  A
C1180      N1181   1.437       .  S
N1181      O1185   1.263       .  A
N1181      O1186   1.260       .  A
N1184      O1187   1.261       .  A
N1184      O1188   1.263       .  A
C1189      C1190   1.400       .  A
C1189      C1194   1.393       .  A
C1189      H1196   1.084       .  S
C1190      C1191   1.411       .  A
C1191      C1192   1.396       .  A
C1191      N1198   1.441       .  S
C1192      C1193   1.402       .  A
C1192      H1197   1.084       .  S
C1193      C1194   1.409       .  A
C1194      N1195   1.433       .  S
N1195      O1199   1.262       .  A
N1195      O1200   1.262       .  A
N1198      O1201   1.262       .  A
N1198      O1202   1.263       .  A
C1203      C1204   1.387       .  A
C1203      C1208   1.405       .  A
C1203      H1210   1.082       .  S
C1204      C1205   1.418       .  A
C1205      C1206   1.417       .  A
C1205      N1212   1.432   1_545  S
C1206      C1207   1.411       .  A
C1206      H1211   1.085       .  S
C1207      C1208   1.434       .  A
C1208      N1209   1.433       .  S
N1209      O1213   1.263       .  A
N1209      O1214   1.252       .  A
N1212      O1215   1.263       .  A
N1212      O1216   1.261       .  A
C1217      C1218   1.408       .  A
C1217      C1222   1.424       .  A
C1217      H1224   1.083       .  S
C1218      C1219   1.424       .  A
C1219      C1220   1.393       .  A
C1219      N1226   1.439       .  S
C1220      C1221   1.397       .  A
C1220      H1225   1.083       .  S
C1221      C1222   1.422       .  A
C1222      N1223   1.437       .  S
N1223      O1227   1.263       .  A
N1223      O1228   1.261       .  A
N1226      O1229   1.262       .  A
N1226      O1230   1.263       .  A
C1231      C1232   1.401       .  A
C1231      C1236   1.418       .  A
C1231      H1238   1.083       .  S
C1232      C1233   1.422   1_556  A
C1233      C1234   1.381       .  A
C1233      N1240   1.436       .  S
C1234      C1235   1.389       .  A
C1234      H1239   1.085       .  S
C1235      C1236   1.422   1_554  A
C1236      N1237   1.438       .  S
N1237      O1241   1.263       .  A
N1237      O1242   1.262       .  A
N1240      O1243   1.263       .  A
N1240      O1244   1.260       .  A
C1245      C1246   1.401       .  A
C1245      C1250   1.404       .  A
C1245      H1252   1.084       .  S
C1246      C1247   1.408       .  A
C1247      C1248   1.391       .  A
C1247      N1254   1.441       .  S
C1248      C1249   1.398       .  A
C1248      H1253   1.085       .  S
C1249      C1250   1.414       .  A
C1250      N1251   1.445       .  S
N1251      O1255   1.263       .  A
N1251      O1256   1.262       .  A
N1254      O1257   1.263       .  A
N1254      O1258   1.263       .  A
C1259      C1260   1.400       .  A
C1259      C1264   1.415       .  A
C1259      H1266   1.084       .  S
C1260      C1261   1.429       .  A
C1261      C1262   1.393       .  A
C1261      N1268   1.436       .  S
C1262      C1263   1.390       .  A
C1262      H1267   1.085       .  S
C1263      C1264   1.429       .  A
C1264      N1265   1.438   1_545  S
N1265      O1269   1.263       .  A
N1265      O1270   1.256       .  A
N1268      O1271   1.260       .  A
N1268      O1272   1.264       .  A
C1273      C1274   1.402       .  A
C1273      C1278   1.414       .  A
C1273      H1280   1.083       .  S
C1274      C1275   1.418       .  A
C1275      C1276   1.408       .  A
C1275      N1282   1.442       .  S
C1276      C1277   1.401       .  A
C1276      H1281   1.084       .  S
C1277      C1278   1.424       .  A
C1278      N1279   1.449       .  S
N1279      O1283   1.263       .  A
N1279      O1284   1.262       .  A
N1282      O1285   1.263       .  A
N1282      O1286   1.263       .  A
C1287      C1288   1.402       .  A
C1287      C1292   1.413       .  A
C1287      H1294   1.083       .  S
C1288      C1289   1.418       .  A
C1289      C1290   1.409       .  A
C1289      N1296   1.443       .  S
C1290      C1291   1.402       .  A
C1290      H1295   1.084       .  S
C1291      C1292   1.421       .  A
C1292      N1293   1.447       .  S
N1293      O1297   1.263       .  A
N1293      O1298   1.263       .  A
N1296      O1299   1.263       .  A
N1296      O1300   1.263       .  A
C1301      C1302   1.408       .  A
C1301      C1306   1.423       .  A
C1301      H1308   1.083       .  S
C1302      C1303   1.411       .  A
C1303      C1304   1.397       .  A
C1303      N1310   1.433       .  S
C1304      C1305   1.402       .  A
C1304      H1309   1.084       .  S
C1305      C1306   1.420       .  A
C1306      N1307   1.442       .  S
N1307      O1311   1.263       .  A
N1307      O1312   1.263       .  A
N1310      O1313   1.262       .  A
N1310      O1314   1.262       .  A
C1315      C1316   1.404       .  A
C1315      C1320   1.427       .  A
C1315      H1322   1.083       .  S
C1316      C1317   1.432       .  A
C1317      C1318   1.403       .  A
C1317      N1324   1.436       .  S
C1318      C1319   1.392       .  A
C1318      H1323   1.084       .  S
C1319      C1320   1.430       .  A
C1320      N1321   1.440       .  S
N1321      O1325   1.261       .  A
N1321      O1326   1.260       .  A
N1324      O1327   1.260       .  A
N1324      O1328   1.263       .  A
C1329      C1330   1.412       .  A
C1329      C1334   1.424       .  A
C1329      H1336   1.082       .  S
C1330      C1331   1.411       .  A
C1331      C1332   1.406       .  A
C1331      N1338   1.442       .  S
C1332      C1333   1.407       .  A
C1332      H1337   1.082       .  S
C1333      C1334   1.422       .  A
C1334      N1335   1.437       .  S
N1335      O1339   1.262       .  A
N1335      O1340   1.263       .  A
N1338      O1341   1.262       .  A
N1338      O1342   1.263       .  A
C1343      C1344   1.403       .  A
C1343      C1348   1.409       .  A
C1343      H1350   1.084       .  S
C1344      C1345   1.414       .  A
C1345      C1346   1.402       .  A
C1345      N1352   1.436       .  S
C1346      C1347   1.401       .  A
C1346      H1351   1.084       .  S
C1347      C1348   1.417       .  A
C1348      N1349   1.441       .  S
N1349      O1353   1.263       .  A
N1349      O1354   1.263       .  A
N1352      O1355   1.262       .  A
N1352      O1356   1.263       .  A
C1357      C1358   1.401       .  A
C1357      C1362   1.402       .  A
C1357      H1364   1.084       .  S
C1358      C1359   1.422       .  A
C1359      C1360   1.405       .  A
C1359      N1366   1.432   1_545  S
C1360      C1361   1.403       .  A
C1360      H1365   1.084       .  S
C1361      C1362   1.421       .  A
C1362      N1363   1.431       .  S
N1363      O1367   1.262       .  A
N1363      O1368   1.262       .  A
N1366      O1369   1.262       .  A
N1366      O1370   1.263       .  A
C1371      C1372   1.419       .  A
C1371      C1376   1.400       .  A
C1371      H1378   1.083       .  S
C1372      C1373   1.421   1_556  A
C1373      C1374   1.432   1_554  A
C1373      N1380   1.441       .  S
C1374      C1375   1.420       .  A
C1374      H1379   1.083       .  S
C1375      C1376   1.407       .  A
C1376      N1377   1.436       .  S
N1377      O1381   1.263       .  A
N1377      O1382   1.262       .  A
N1380      O1383   1.262       .  A
N1380      O1384   1.263       .  A
C1385      C1386   1.406       .  A
C1385      C1390   1.406       .  A
C1385      H1392   1.085       .  S
C1386      C1387   1.419       .  A
C1387      C1388   1.413       .  A
C1387      N1394   1.447   1_554  S
C1388      C1389   1.407       .  A
C1388      H1393   1.082       .  S
C1389      C1390   1.415       .  A
C1390      N1391   1.431       .  S
N1391      O1395   1.262       .  A
N1391      O1396   1.262       .  A
N1394      O1397   1.263       .  A
N1394      O1398   1.263       .  A
C1399      C1400   1.407       .  A
C1399      C1404   1.394       .  A
C1399      H1406   1.084       .  S
C1400      C1401   1.408       .  A
C1401      C1402   1.394       .  A
C1401      N1408   1.438       .  S
C1402      C1403   1.408       .  A
C1402      H1407   1.083       .  S
C1403      C1404   1.413       .  A
C1404      N1405   1.437       .  S
N1405      O1409   1.263       .  A
N1405      O1410   1.263       .  A
N1408      O1411   1.263       .  A
N1408      O1412   1.263       .  A
C1413      C1414   1.406       .  A
C1413      C1418   1.398       .  A
C1413      H1420   1.084       .  S
C1414      C1415   1.410       .  A
C1415      C1416   1.398       .  A
C1415      N1422   1.449       .  S
C1416      C1417   1.405       .  A
C1416      H1421   1.084       .  S
C1417      C1418   1.408       .  A
C1418      N1419   1.445       .  S
N1419      O1423   1.263       .  A
N1419      O1424   1.263       .  A
N1422      O1425   1.262       .  A
N1422      O1426   1.263       .  A
C1427      C1428   1.402   1_554  A
C1427      C1432   1.401       .  A
C1427      H1434   1.084       .  S
C1428      C1429   1.418       .  A
C1429      C1430   1.412       .  A
C1429      N1436   1.445       .  S
C1430      C1431   1.407       .  A
C1430      H1435   1.083       .  S
C1431      C1432   1.409   1_556  A
C1432      N1433   1.427       .  S
N1433      O1437   1.261   1_554  A
N1433      O1438   1.262       .  A
N1436      O1439   1.262   1_655  A
N1436      O1440   1.263       .  A
C1441      C1442   1.402       .  A
C1441      C1446   1.401       .  A
C1441      H1448   1.084       .  S
C1442      C1443   1.418       .  A
C1443      C1444   1.402       .  A
C1443      N1450   1.435       .  S
C1444      C1445   1.401       .  A
C1444      H1449   1.084       .  S
C1445      C1446   1.419       .  A
C1446      N1447   1.434   1_545  S
N1447      O1451   1.262       .  A
N1447      O1452   1.262       .  A
N1450      O1453   1.262       .  A
N1450      O1454   1.263       .  A
C1455      C1456   1.401       .  A
C1455      C1460   1.407       .  A
C1455      H1462   1.084       .  S
C1456      C1457   1.422       .  A
C1457      C1458   1.419       .  A
C1457      N1464   1.437       .  S
C1458      C1459   1.410       .  A
C1458      H1463   1.083       .  S
C1459      C1460   1.423       .  A
C1460      N1461   1.432       .  S
N1461      O1465   1.262       .  A
N1461      O1466   1.260       .  A
N1464      O1467   1.263       .  A
N1464      O1468   1.263       .  A
C1469      C1470   1.402       .  A
C1469      C1474   1.392       .  A
C1469      H1476   1.083       .  S
C1470      C1471   1.415       .  A
C1471      C1472   1.397       .  A
C1471      N1478   1.433       .  S
C1472      C1473   1.399       .  A
C1472      H1477   1.084       .  S
C1473      C1474   1.416       .  A
C1474      N1475   1.439       .  S
N1475      O1479   1.263       .  A
N1475      O1480   1.263   1_655  A
N1478      O1481   1.262       .  A
N1478      O1482   1.263       .  A
C1483      C1484   1.411       .  A
C1483      C1488   1.416       .  A
C1483      H1490   1.075       .  S
C1484      C1485   1.416       .  A
C1485      C1486   1.422       .  A
C1485      N1492   1.436       .  S
C1486      C1487   1.410       .  A
C1486      H1491   1.084       .  S
C1487      C1488   1.415       .  A
C1488      N1489   1.443       .  S
N1489      O1493   1.263       .  A
N1489      O1494   1.262       .  A
N1492      O1495   1.263       .  A
N1492      O1496   1.262       .  A
C1497      C1498   1.404       .  A
C1497      C1502   1.396       .  A
C1497      H1504   1.084       .  S
C1498      C1499   1.412       .  A
C1499      C1500   1.397       .  A
C1499      N1506   1.434       .  S
C1500      C1501   1.404       .  A
C1500      H1505   1.083       .  S
C1501      C1502   1.415       .  A
C1502      N1503   1.435       .  S
N1503      O1507   1.263       .  A
N1503      O1508   1.262       .  A
N1506      O1509   1.263       .  A
N1506      O1510   1.262       .  A
C1511      C1512   1.409       .  A
C1511      C1516   1.424       .  A
C1511      H1518   1.083       .  S
C1512      C1513   1.413       .  A
C1513      C1514   1.403       .  A
C1513      N1520   1.434       .  S
C1514      C1515   1.407       .  A
C1514      H1519   1.082       .  S
C1515      C1516   1.420       .  A
C1516      N1517   1.443       .  S
N1517      O1521   1.263       .  A
N1517      O1522   1.263       .  A
N1520      O1523   1.261       .  A
N1520      O1524   1.263       .  A
C1525      C1526   1.413       .  A
C1525      C1530   1.406       .  A
C1525      H1532   1.083       .  S
C1526      C1527   1.423       .  A
C1527      C1528   1.416       .  A
C1527      N1534   1.434       .  S
C1528      C1529   1.406       .  A
C1528      H1533   1.084       .  S
C1529      C1530   1.410       .  A
C1530      N1531   1.433       .  S
N1531      O1535   1.262       .  A
N1531      O1536   1.262       .  A
N1534      O1537   1.263       .  A
N1534      O1538   1.262       .  A
C1539      C1540   1.399       .  A
C1539      C1544   1.384       .  A
C1539      H1546   1.084       .  S
C1540      C1541   1.416       .  A
C1541      C1542   1.399       .  A
C1541      N1548   1.431       .  S
C1542      C1543   1.400       .  A
C1542      H1547   1.084       .  S
C1543      C1544   1.416       .  A
C1544      N1545   1.435       .  S
N1545      O1549   1.263       .  A
N1545      O1550   1.263       .  A
N1548      O1551   1.262       .  A
N1548      O1552   1.263       .  A
C1553      C1554   1.390       .  A
C1553      C1558   1.403       .  A
C1553      H1560   1.084       .  S
C1554      C1555   1.430       .  A
C1555      C1556   1.405       .  A
C1555      N1562   1.423       .  S
C1556      C1557   1.385       .  A
C1556      H1561   1.084       .  S
C1557      C1558   1.428       .  A
C1558      N1559   1.427       .  S
N1559      O1563   1.260       .  A
N1559      O1564   1.260       .  A
N1562      O1565   1.261       .  A
N1562      O1566   1.262       .  A
C1567      C1568   1.398       .  A
C1567      C1572   1.384       .  A
C1567      H1574   1.085       .  S
C1568      C1569   1.408       .  A
C1569      C1570   1.388       .  A
C1569      N1576   1.435       .  S
C1570      C1571   1.397       .  A
C1570      H1575   1.085       .  S
C1571      C1572   1.405       .  A
C1572      N1573   1.435       .  S
N1573      O1577   1.262       .  A
N1573      O1578   1.262       .  A
N1576      O1579   1.262       .  A
N1576      O1580   1.263       .  A
C1581      C1582   1.392       .  A
C1581      C1586   1.391       .  A
C1581      H1588   1.084       .  S
C1582      C1583   1.406       .  A
C1583      C1584   1.385       .  A
C1583      N1590   1.435       .  S
C1584      C1585   1.392       .  A
C1584      H1589   1.084       .  S
C1585      C1586   1.415       .  A
C1586      N1587   1.441       .  S
N1587      O1591   1.263       .  A
N1587      O1592   1.262       .  A
N1590      O1593   1.262       .  A
N1590      O1594   1.262       .  A
C1595      C1596   1.402       .  A
C1595      C1600   1.396       .  A
C1595      H1602   1.084       .  S
C1596      C1597   1.414       .  A
C1597      C1598   1.391       .  A
C1597      N1604   1.433       .  S
C1598      C1599   1.403       .  A
C1598      H1603   1.084       .  S
C1599      C1600   1.413       .  A
C1600      N1601   1.432       .  S
N1601      O1605   1.262       .  A
N1601      O1606   1.262       .  A
N1604      O1607   1.262       .  A
N1604      O1608   1.263       .  A
C1609      C1610   1.403       .  A
C1609      C1614   1.413       .  A
C1609      H1616   1.083       .  S
C1610      C1611   1.423       .  A
C1611      C1612   1.408       .  A
C1611      N1618   1.434       .  S
C1612      C1613   1.401       .  A
C1612      H1617   1.084       .  S
C1613      C1614   1.420       .  A
C1614      N1615   1.442       .  S
N1615      O1619   1.263       .  A
N1615      O1620   1.263       .  A
N1618      O1621   1.262       .  A
N1618      O1622   1.263       .  A
C1623      C1624   1.410       .  A
C1623      C1628   1.398       .  A
C1623      H1630   1.085       .  S
C1624      C1625   1.419       .  A
C1625      C1626   1.424       .  A
C1625      N1632   1.444       .  S
C1626      C1627   1.412       .  A
C1626      H1631   1.083       .  S
C1627      C1628   1.407       .  A
C1628      N1629   1.441       .  S
N1629      O1633   1.263       .  A
N1629      O1634   1.263       .  A
N1632      O1635   1.262       .  A
N1632      O1636   1.263       .  A
C1637      C1638   1.401       .  A
C1637      C1642   1.395       .  A
C1637      H1644   1.085       .  S
C1638      C1639   1.416       .  A
C1639      C1640   1.405       .  A
C1639      N1646   1.448       .  S
C1640      C1641   1.405       .  A
C1640      H1645   1.084       .  S
C1641      C1642   1.408       .  A
C1642      N1643   1.437       .  S
N1643      O1647   1.263       .  A
N1643      O1648   1.263       .  A
N1646      O1649   1.262       .  A
N1646      O1650   1.263       .  A
C1651      C1652   1.409       .  A
C1651      C1656   1.410       .  A
C1651      H1658   1.084       .  S
C1652      C1653   1.412       .  A
C1653      C1654   1.403       .  A
C1653      N1660   1.433       .  S
C1654      C1655   1.408       .  A
C1654      H1659   1.084       .  S
C1655      C1656   1.415       .  A
C1656      N1657   1.432       .  S
N1657      O1661   1.263       .  A
N1657      O1662   1.262       .  A
N1660      O1663   1.262       .  A
N1660      O1664   1.262       .  A
C1665      C1666   1.404       .  A
C1665      C1670   1.405       .  A
C1665      H1672   1.084       .  S
C1666      C1667   1.419       .  A
C1667      C1668   1.416       .  A
C1667      N1674   1.434       .  S
C1668      C1669   1.408       .  A
C1668      H1673   1.084       .  S
C1669      C1670   1.413       .  A
C1670      N1671   1.427       .  S
N1671      O1675   1.259       .  A
N1671      O1676   1.263       .  A
N1674      O1677   1.262       .  A
N1674      O1678   1.263       .  A
C1679      C1680   1.411       .  A
C1679      C1684   1.412       .  A
C1679      H1686   1.084       .  S
C1680      C1681   1.407       .  A
C1681      C1682   1.404       .  A
C1681      N1688   1.428       .  S
C1682      C1683   1.411       .  A
C1682      H1687   1.083       .  S
C1683      C1684   1.416       .  A
C1684      N1685   1.432       .  S
N1685      O1689   1.262       .  A
N1685      O1690   1.261       .  A
N1688      O1691   1.262       .  A
N1688      O1692   1.261       .  A
C1693      C1694   1.398       .  A
C1693      C1698   1.395       .  A
C1693      H1700   1.085       .  S
C1694      C1695   1.412       .  A
C1695      C1696   1.410       .  A
C1695      N1702   1.443       .  S
C1696      C1697   1.405       .  A
C1696      H1701   1.083       .  S
C1697      C1698   1.415       .  A
C1698      N1699   1.439       .  S
N1699      O1703   1.263       .  A
N1699      O1704   1.263       .  A
N1702      O1705   1.263       .  A
N1702      O1706   1.263       .  A
C1707      C1708   1.397       .  A
C1707      C1712   1.391       .  A
C1707      H1714   1.084       .  S
C1708      C1709   1.409       .  A
C1709      C1710   1.388       .  A
C1709      N1716   1.431       .  S
C1710      C1711   1.398       .  A
C1710      H1715   1.084       .  S
C1711      C1712   1.413       .  A
C1712      N1713   1.430       .  S
N1713      O1717   1.262       .  A
N1713      O1718   1.262       .  A
N1716      O1719   1.262       .  A
N1716      O1720   1.262       .  A
C1721      C1722   1.404       .  A
C1721      C1726   1.382       .  A
C1721      H1728   1.083       .  S
C1722      C1723   1.411       .  A
C1723      C1724   1.397       .  A
C1723      N1730   1.431       .  S
C1724      C1725   1.398       .  A
C1724      H1729   1.084       .  S
C1725      C1726   1.404       .  A
C1726      N1727   1.438       .  S
N1727      O1731   1.263       .  A
N1727      O1732   1.262       .  A
N1730      O1733   1.262       .  A
N1730      O1734   1.262   1_455  A
C1735      C1736   1.408       .  A
C1735      C1740   1.418       .  A
C1735      H1742   1.083       .  S
C1736      C1737   1.416       .  A
C1737      C1738   1.410       .  A
C1737      N1744   1.443       .  S
C1738      C1739   1.410       .  A
C1738      H1743   1.083       .  S
C1739      C1740   1.418       .  A
C1740      N1741   1.438       .  S
N1741      O1745   1.262       .  A
N1741      O1746   1.263       .  A
N1744      O1747   1.263       .  A
N1744      O1748   1.263       .  A
C1749      C1750   1.402       .  A
C1749      C1754   1.406       .  A
C1749      H1756   1.083       .  S
C1750      C1751   1.415       .  A
C1751      C1752   1.399       .  A
C1751      N1758   1.435       .  S
C1752      C1753   1.400       .  A
C1752      H1757   1.084       .  S
C1753      C1754   1.419       .  A
C1754      N1755   1.439       .  S
N1755      O1759   1.263       .  A
N1755      O1760   1.263       .  A
N1758      O1761   1.262       .  A
N1758      O1762   1.262       .  A
C1763      C1764   1.397       .  A
C1763      C1768   1.389       .  A
C1763      H1770   1.085       .  S
C1764      C1765   1.411       .  A
C1765      C1766   1.403       .  A
C1765      N1772   1.444       .  S
C1766      C1767   1.407       .  A
C1766      H1771   1.083       .  S
C1767      C1768   1.412       .  A
C1768      N1769   1.432       .  S
N1769      O1773   1.262       .  A
N1769      O1774   1.263   1_655  A
N1772      O1775   1.262       .  A
N1772      O1776   1.263       .  A
C1777      C1778   1.408       .  A
C1777      C1782   1.411       .  A
C1777      H1784   1.080       .  S
C1778      C1779   1.419       .  A
C1779      C1780   1.412       .  A
C1779      N1786   1.441       .  S
C1780      C1781   1.408       .  A
C1780      H1785   1.082       .  S
C1781      C1782   1.412       .  A
C1782      N1783   1.443       .  S
N1783      O1787   1.263       .  A
N1783      O1788   1.263       .  A
N1786      O1789   1.261       .  A
N1786      O1790   1.263       .  A
C1791      C1792   1.410       .  A
C1791      C1796   1.401       .  A
C1791      H1798   1.084       .  S
C1792      C1793   1.397       .  A
C1793      C1794   1.384       .  A
C1793      N1800   1.441       .  S
C1794      C1795   1.418       .  A
C1794      H1799   1.084       .  S
C1795      C1796   1.403       .  A
C1796      N1797   1.435       .  S
N1797      O1801   1.263       .  A
N1797      O1802   1.262       .  A
N1800      O1803   1.261       .  A
N1800      O1804   1.262       .  A
C1805      C1806   1.404       .  A
C1805      C1810   1.408       .  A
C1805      H1812   1.083       .  S
C1806      C1807   1.421       .  A
C1807      C1808   1.412       .  A
C1807      N1814   1.432       .  S
C1808      C1809   1.405       .  A
C1808      H1813   1.083       .  S
C1809      C1810   1.423       .  A
C1810      N1811   1.434       .  S
N1811      O1815   1.263       .  A
N1811      O1816   1.262       .  A
N1814      O1817   1.262       .  A
N1814      O1818   1.262       .  A
