geometry optimzed in LAMMPS
_audit_creation_date              2020-11-30 
_audit_creation_method            'lammps2cif' 
_symmetry_space_group_name_H-M    'P1' 
_symmetry_Int_Tables_number       1 
_symmetry_cell_setting            triclinic 
loop_ 
_symmetry_equiv_pos_as_xyz 
  x,y,z 
_cell_length_a                    103.57457158 
_cell_length_b                    42.54543363891958 
_cell_length_c                    43.78716550897443 
_cell_angle_alpha                 89.71202505310858 
_cell_angle_beta                  89.89144065656606 
_cell_angle_gamma                 90.49113260628586 
loop_ 
_atom_site_label 
_atom_site_type_symbol 
_atom_site_fract_x 
_atom_site_fract_y 
_atom_site_fract_z 
_atom_site_charge 
N1          N  0.39517883  0.42841590  0.01727043    -0.27500
N2          N  0.38404718  0.44297417  0.01416814    -0.35400
C3          C  0.37442624  0.42325875  0.02227813     0.00800
C4          C  0.37972396  0.39471608  0.03093558     0.06800
C5          C  0.39294734  0.39901739  0.02744559    -0.06300
H6          H  0.36432706  0.42938589  0.02148058     0.07500
H7          H  0.40047020  0.38210991  0.03170324     0.08700
Cu8        Cu  0.38232616  0.48858232  0.99815518     0.44200
Cu9        Cu  0.41286614  0.44873022  0.00661311     0.42000
Cu10       Cu  0.41186946  0.52701601  0.97392181     0.43900
N11         N  0.38308316  0.53372102  0.98039519    -0.34900
N12         N  0.39386004  0.54772023  0.97131757    -0.29200
C13         C  0.39109190  0.57674023  0.96113552    -0.05300
C14         C  0.37788579  0.58136800  0.96392822     0.06900
C15         C  0.37316272  0.55341799  0.97625176     0.00700
H16         H  0.39826173  0.59322002  0.95266028     0.08400
H17         H  0.36326445  0.54758799  0.98191579     0.07500
N18         N  0.42875739  0.50216720  0.98074405    -0.36400
N19         N  0.42912975  0.47371242  0.99288285    -0.28600
C20         C  0.44148500  0.46450140  0.99470594    -0.03800
C21         C  0.44935132  0.48834086  0.98315921     0.04800
C22         C  0.44086743  0.51184060  0.97451118     0.02900
H23         H  0.44444088  0.44215113  0.00409194     0.08000
H24         H  0.44322923  0.53443666  0.96448158     0.06800
N25         N  0.62664325  0.55001015  0.93813570    -0.27500
N26         N  0.63764212  0.53511564  0.94223065    -0.35400
C27         C  0.64747920  0.55422177  0.93411879     0.00800
C28         C  0.64248022  0.58273952  0.92440680     0.06800
C29         C  0.62918913  0.57905258  0.92730902    -0.06300
H30         H  0.65752724  0.54774860  0.93563975     0.07500
H31         H  0.62183823  0.59612209  0.92205861     0.08700
Cu32       Cu  0.63880907  0.48970337  0.95922558     0.44200
Cu33       Cu  0.60873025  0.53017894  0.94814680     0.42000
Cu34       Cu  0.60891992  0.45139870  0.98119326     0.43900
N35         N  0.63773398  0.44440616  0.97666423    -0.34900
N36         N  0.62684480  0.43035475  0.98487695    -0.29200
C37         C  0.62946742  0.40108327  0.99466917    -0.05300
C38         C  0.64269415  0.39635527  0.99248901     0.06900
C39         C  0.64757222  0.42451724  0.98098027     0.00700
H40         H  0.62219263  0.38445836  0.00234183     0.08400
H41         H  0.65752052  0.43032275  0.97582274     0.07500
N42         N  0.59229072  0.47695163  0.97313622    -0.36400
N43         N  0.59220288  0.50540968  0.96091442    -0.28600
C44         C  0.57991203  0.51497560  0.95834235    -0.03800
C45         C  0.57179976  0.49142222  0.96949754     0.04800
C46         C  0.58006686  0.46768476  0.97868065     0.02900
H47         H  0.57717103  0.53754363  0.94907381     0.08000
H48         H  0.57747094  0.44508502  0.98838508     0.06800
C49         C  0.20672634  0.82552131  0.60940791     0.80000
N50         N  0.20679769  0.85163940  0.59152090    -0.78300
C51         C  0.21420818  0.87699061  0.59870523     0.82400
N52         N  0.22160344  0.87609114  0.62432698    -0.78300
C53         C  0.22157966  0.85016156  0.64265907     0.82500
N54         N  0.21412731  0.82497758  0.63497354    -0.80000
C55         C  0.21033798  0.16078343  0.40390056     0.80000
N56         N  0.21008041  0.13554337  0.42298251    -0.78300
C57         C  0.21709821  0.10953544  0.41676300     0.82400
N58         N  0.22445867  0.10893523  0.39105014    -0.78300
C59         C  0.22482145  0.13400144  0.37167861     0.82500
N60         N  0.21772678  0.15981881  0.37828157    -0.80000
C61         C  0.31464628  0.15440084  0.10946215     0.80000
N62         N  0.31451348  0.12862226  0.09129939    -0.78300
C63         C  0.30654953  0.10390090  0.09748404     0.82400
N64         N  0.29863736  0.10515618  0.12217459    -0.78300
C65         C  0.29862136  0.13072218  0.14062761     0.82500
N66         N  0.30666628  0.15529635  0.13413700    -0.80000
C67         C  0.31220560  0.82323293  0.90144256     0.80000
N68         N  0.30377536  0.82299919  0.87772020    -0.78300
C69         C  0.29573080  0.84757718  0.87278750     0.82400
N70         N  0.29615993  0.87257818  0.89202845    -0.78300
C71         C  0.30453694  0.87311376  0.91591006     0.82500
N72         N  0.31254423  0.84841853  0.92031061    -0.80000
N73         N  0.12627735  0.54938087  0.52710879    -0.27500
N74         N  0.13726148  0.53525899  0.52088191    -0.35400
C75         C  0.14711622  0.55513938  0.52631835     0.00800
C76         C  0.14212239  0.58336070  0.53646420     0.06800
C77         C  0.12883730  0.57875391  0.53665960    -0.06300
H78         H  0.15714756  0.54942966  0.52261810     0.07500
H79         H  0.12151734  0.59539057  0.54322566     0.08700
Cu80       Cu  0.13835245  0.48989794  0.50476763     0.44200
Cu81       Cu  0.10841435  0.52799554  0.52136249     0.42000
Cu82       Cu  0.10855904  0.44784562  0.49140913     0.43900
N83         N  0.13747982  0.44426612  0.48921203    -0.34900
N84         N  0.12664113  0.42856114  0.48429134    -0.29200
C85         C  0.12954044  0.39954952  0.47443588    -0.05300
C86         C  0.14289291  0.39688607  0.47313382     0.06900
C87         C  0.14754522  0.42584251  0.48268224     0.00700
H88         H  0.12241282  0.38177270  0.46889178     0.08400
H89         H  0.15750538  0.43332101  0.48467450     0.07500
N90         N  0.09197941  0.47336577  0.50012058    -0.36400
N91         N  0.09192758  0.50218989  0.51125902    -0.28600
C92         C  0.07965613  0.51191646  0.51367810    -0.03800
C93         C  0.07154479  0.48814334  0.50344609     0.04800
C94         C  0.07974092  0.46406019  0.49505986     0.02900
H95         H  0.07691777  0.53495197  0.52161219     0.08000
H96         H  0.07707056  0.44136777  0.48590012     0.06800
N97         N  0.89430401  0.54695133  0.48618260    -0.27500
N98         N  0.88364383  0.53082290  0.48049409    -0.35400
C99         C  0.87337406  0.54895568  0.48596669     0.00800
C100        C  0.87773490  0.57808218  0.49567117     0.06800
C101        C  0.89109811  0.57591163  0.49562013    -0.06300
H102        H  0.86347069  0.54131234  0.48305531     0.07500
H103        H  0.89800369  0.59414198  0.50137553     0.08700
Cu104      Cu  0.88345949  0.48529151  0.46468223     0.44200
Cu105      Cu  0.91250203  0.52824463  0.47986947     0.42000
Cu106      Cu  0.91369649  0.44775483  0.44915687     0.43900
N107        N  0.88481630  0.44074327  0.44675878    -0.34900
N108        N  0.89582704  0.42670569  0.44059323    -0.29200
C109        C  0.89321889  0.39812458  0.42889015    -0.05300
C110        C  0.87988007  0.39399807  0.42768398     0.06900
C111        C  0.87494641  0.42169366  0.43925856     0.00700
H112        H  0.90053327  0.38160474  0.42202660     0.08400
H113        H  0.86491896  0.42790826  0.44202388     0.07500
N114        N  0.92981292  0.47436685  0.46171086    -0.36400
N115        N  0.92930643  0.50328641  0.47257552    -0.28600
C116        C  0.94133073  0.51328422  0.47899269    -0.03800
C117        C  0.94991465  0.48957487  0.47197823     0.04800
C118        C  0.94221858  0.46524874  0.46104108     0.02900
H119        H  0.94355168  0.53598577  0.48874714     0.08000
H120        H  0.94533833  0.44246445  0.45324321     0.06800
C121        C  0.70937031  0.15522455  0.05236889     0.80000
N122        N  0.71706347  0.15511832  0.07745826    -0.78300
C123        C  0.72505358  0.13064392  0.08323955     0.82400
N124        N  0.72526619  0.10599338  0.06361123    -0.78300
C125        C  0.71758026  0.10564603  0.03848449     0.82500
N126        N  0.70967428  0.13036766  0.03305157    -0.80000
C127        C  0.70546918  0.82636641  0.84244081     0.80000
N128        N  0.70605692  0.85151425  0.86140826    -0.78300
C129        C  0.71353697  0.87694398  0.85441156     0.82400
N130        N  0.72050966  0.87700724  0.82810405    -0.78300
C131        C  0.72009636  0.85202028  0.80891580     0.82500
N132        N  0.71250522  0.82683286  0.81619733    -0.80000
C133        C  0.80803874  0.81497086  0.54660457     0.80000
N134        N  0.80909380  0.83991448  0.52725217    -0.78300
C135        C  0.80208378  0.86629922  0.53186906     0.82400
N136        N  0.79384029  0.86746603  0.55601344    -0.78300
C137        C  0.79253524  0.84255795  0.57536818     0.82500
N138        N  0.79971097  0.81644690  0.57055175    -0.80000
C139        C  0.81480061  0.15488481  0.34504624     0.80000
N140        N  0.81510974  0.12843999  0.36257246    -0.78300
C141        C  0.80782005  0.10284817  0.35533992     0.82400
N142        N  0.80013612  0.10393660  0.33026739    -0.78300
C143        C  0.79969973  0.13013976  0.31244696     0.82500
N144        N  0.80709320  0.15550386  0.31994270    -0.80000
C145        C  0.80349680  0.89356592  0.51091601    -0.03600
C146        C  0.79850602  0.92306209  0.51892923    -0.06200
C147        C  0.79976136  0.94870980  0.49903526    -0.17000
C148        C  0.80595339  0.94522807  0.47083881     0.25100
C149        C  0.81101136  0.91604443  0.46270614    -0.18700
C150        C  0.80983356  0.89038824  0.48263523    -0.07600
C151        C  0.80693418  0.97152292  0.45013666    -0.14100
C152        C  0.80747442  0.99381524  0.43305965    -0.13800
C153        C  0.80783046  0.02081020  0.41312524     0.25000
C154        C  0.80041593  0.02117636  0.38645102    -0.19200
C155        C  0.80047933  0.04773809  0.36750895    -0.07700
C156        C  0.80797352  0.07436612  0.37502960    -0.03700
C157        C  0.81548342  0.07361386  0.40179088    -0.09000
C158        C  0.81539221  0.04702745  0.42069210    -0.16700
H159        H  0.79365867  0.92637547  0.54059389     0.11500
H160        H  0.79583400  0.97122351  0.50557812     0.10700
H161        H  0.81581115  0.91308024  0.44091513     0.10700
H162        H  0.81376086  0.86800632  0.47573427     0.11200
H163        H  0.79451429  0.00100975  0.38039400     0.11300
H164        H  0.79459732  0.04743903  0.34709467     0.11200
H165        H  0.82136536  0.09363722  0.40829946     0.11400
H166        H  0.82115492  0.04700835  0.44131852     0.10200
C167        C  0.72823384  0.85177087  0.78098605    -0.03600
C168        C  0.72841898  0.82524632  0.76189964    -0.09400
C169        C  0.73625611  0.82485015  0.73587288    -0.17000
C170        C  0.74399851  0.85091511  0.72849270     0.25100
C171        C  0.74387649  0.87743941  0.74724760    -0.18700
C172        C  0.73605558  0.87790050  0.77331256    -0.07600
C173        C  0.75209828  0.85031235  0.70175312    -0.14100
C174        C  0.75890011  0.84926904  0.67940689    -0.13800
C175        C  0.76712283  0.84743888  0.65294684     0.25000
C176        C  0.76832322  0.87313311  0.63304052    -0.19200
C177        C  0.77649416  0.87149500  0.60763974    -0.07700
C178        C  0.78360587  0.84408960  0.60184176    -0.03700
C179        C  0.78220943  0.81826566  0.62185378    -0.09000
C180        C  0.77403016  0.81997269  0.64721008    -0.16700
H181        H  0.72255818  0.80470777  0.76710143     0.11500
H182        H  0.73629169  0.80417321  0.72152787     0.10700
H183        H  0.74984274  0.89774418  0.74176277     0.10700
H184        H  0.73617245  0.89870564  0.78745291     0.11200
H185        H  0.76299936  0.89449748  0.63723922     0.11300
H186        H  0.77730099  0.89178518  0.59271145     0.11200
H187        H  0.78748795  0.79677039  0.61807620     0.11400
H188        H  0.77314992  0.79991452  0.66244150     0.10200
C189        C  0.73362501  0.13119204  0.11032748    -0.03600
C190        C  0.74312521  0.10808014  0.11435246    -0.09400
C191        C  0.75134320  0.10897593  0.13963524    -0.17000
C192        C  0.75016628  0.13286746  0.16128398     0.25100
C193        C  0.74069789  0.15582964  0.15763435    -0.18700
C194        C  0.73248940  0.15505120  0.13232849    -0.07600
C195        C  0.75867318  0.13374743  0.18722554    -0.14100
C196        C  0.76582930  0.13390492  0.20891291    -0.13800
C197        C  0.77433349  0.13314389  0.23486220     0.25000
C198        C  0.78306217  0.15784133  0.24001713    -0.19200
C199        C  0.79133942  0.15692627  0.26522248    -0.07700
C200        C  0.79100928  0.13119689  0.28557274    -0.03700
C201        C  0.78220432  0.10646765  0.28009054    -0.09000
C202        C  0.77392629  0.10749333  0.25495067    -0.16700
H203        H  0.74428981  0.08942137  0.09787432     0.11500
H204        H  0.75863521  0.09105930  0.14226269     0.10700
H205        H  0.73967876  0.17438374  0.17430415     0.10700
H206        H  0.72526180  0.17314478  0.13003608     0.11200
H207        H  0.78347295  0.17779555  0.22456403     0.11300
H208        H  0.79800621  0.17631687  0.26869558     0.11200
H209        H  0.78164758  0.08634387  0.29528659     0.11400
H210        H  0.76720837  0.08824501  0.25117326     0.10200
C211        C  0.71784599  0.07874727  0.01707537    -0.03600
C212        C  0.72597307  0.05293127  0.02243044    -0.09400
C213        C  0.72612794  0.02759698  0.00218107    -0.17000
C214        C  0.71818617  0.02773300  0.97635583     0.25100
C215        C  0.71011018  0.05329185  0.97079667    -0.18700
C216        C  0.70993032  0.07861341  0.99096872    -0.07600
C217        C  0.71814207  0.00156165  0.95567715    -0.14100
C218        C  0.71765169  0.97988822  0.93808318    -0.13800
C219        C  0.71663441  0.95412622  0.91704240     0.25000
C220        C  0.72318540  0.95530355  0.88908154    -0.19200
C221        C  0.72212557  0.93031415  0.86858816    -0.07700
C222        C  0.71447382  0.90377112  0.87581867    -0.03700
C223        C  0.70786478  0.90295158  0.90394451    -0.09000
C224        C  0.70895329  0.92795327  0.92438688    -0.16700
H225        H  0.73219259  0.05223404  0.04226570     0.11500
H226        H  0.73240674  0.00788445  0.00671586     0.10700
H227        H  0.70391091  0.05361249  0.95089242     0.10700
H228        H  0.70356111  0.09804257  0.98608648     0.11200
H229        H  0.72912005  0.97552327  0.88312408     0.11300
H230        H  0.72732644  0.93179128  0.84714794     0.11200
H231        H  0.70189205  0.88294208  0.91028002     0.11400
H232        H  0.70380605  0.92685503  0.94593766     0.10200
C233        C  0.87241285  0.36620184  0.41677450    -0.03600
C234        C  0.87868579  0.34046621  0.40336403    -0.09400
C235        C  0.87159673  0.31429833  0.39340370    -0.17000
C236        C  0.85815128  0.31343665  0.39666636     0.25100
C237        C  0.85181464  0.33890567  0.40982219    -0.18700
C238        C  0.85886214  0.36505744  0.41978858    -0.07600
C239        C  0.85084378  0.28633330  0.38688553    -0.14100
C240        C  0.84461542  0.26362839  0.37917904    -0.13800
C241        C  0.83716389  0.23635645  0.37048297     0.25000
C242        C  0.82950123  0.23705052  0.34419419    -0.19200
C243        C  0.82225296  0.21056549  0.33581510    -0.07700
C244        C  0.82256607  0.18295948  0.35367567    -0.03700
C245        C  0.83031659  0.18254371  0.38007021    -0.09000
C246        C  0.83754609  0.20904878  0.38838407    -0.16700
H247        H  0.88905646  0.34041865  0.40049301     0.11500
H248        H  0.87661266  0.29469728  0.38323659     0.10700
H249        H  0.84141220  0.33850637  0.41251873     0.10700
H250        H  0.85361913  0.38416996  0.43003254     0.11200
H251        H  0.82912010  0.25807523  0.33017161     0.11300
H252        H  0.81640087  0.21177050  0.31538579     0.11200
H253        H  0.83079392  0.16176825  0.39439273     0.11400
H254        H  0.84343074  0.20823823  0.40880130     0.10200
C255        C  0.86975912  0.60560623  0.50348676    -0.03600
C256        C  0.87483474  0.63023936  0.52122790    -0.09400
C257        C  0.86721422  0.65615054  0.52849271    -0.17000
C258        C  0.85447913  0.65777480  0.51800274     0.25100
C259        C  0.84936585  0.63341439  0.50033187    -0.18700
C260        C  0.85693178  0.60747896  0.49315509    -0.07600
C261        C  0.84667874  0.68462200  0.52480598    -0.14100
C262        C  0.83996446  0.70707684  0.52944135    -0.13800
C263        C  0.83190370  0.73401237  0.53381324     0.25000
C264        C  0.83168856  0.75782105  0.51169065    -0.19200
C265        C  0.82388511  0.78408443  0.51577890    -0.07700
C266        C  0.81614796  0.78684755  0.54207755    -0.03700
C267        C  0.81637737  0.76264800  0.56412339    -0.09000
C268        C  0.82422516  0.73642581  0.56000069    -0.16700
H269        H  0.88463142  0.62939812  0.52972160     0.11500
H270        H  0.87126030  0.67493117  0.54219074     0.10700
H271        H  0.83954090  0.63453637  0.49195914     0.10700
H272        H  0.85275878  0.58916433  0.47914646     0.11200
H273        H  0.83757126  0.75611133  0.49128535     0.11300
H274        H  0.82392076  0.80219024  0.49831127     0.11200
H275        H  0.81057185  0.76403343  0.58465570     0.11400
H276        H  0.82431434  0.71807152  0.57724098     0.10200
C277        C  0.96413500  0.48995048  0.47624507    -0.03600
C278        C  0.97075918  0.51835123  0.48200983    -0.09400
C279        C  0.98412388  0.51866841  0.48642444    -0.17000
C280        C  0.99106398  0.49065560  0.48517841     0.25100
C281        C  0.98459854  0.46230671  0.47938930    -0.18700
C282        C  0.97123337  0.46192519  0.47492412    -0.07600
C283        C  0.00482538  0.49099497  0.48959578    -0.14100
C284        C  0.01637985  0.49090071  0.49281181    -0.13800
C285        C  0.03020151  0.49013895  0.49582918     0.25000
C286        C  0.03729664  0.46782306  0.47972117    -0.19200
C287        C  0.05073185  0.46706459  0.48231830    -0.07700
C288        C  0.05727479  0.48872992  0.50103760    -0.03700
C289        C  0.05004812  0.51108099  0.51719296    -0.09000
C290        C  0.03659295  0.51172746  0.51462081    -0.16700
H291        H  0.96567833  0.54042804  0.48291360     0.11500
H292        H  0.98904232  0.54077350  0.49076790     0.10700
H293        H  0.98988623  0.44047052  0.47836846     0.10700
H294        H  0.96649032  0.43961068  0.47078049     0.11200
H295        H  0.03244404  0.45106004  0.46504032     0.11300
H296        H  0.05596626  0.44976204  0.46931215     0.11200
H297        H  0.05474532  0.52792131  0.53200420     0.11400
H298        H  0.03118449  0.52907671  0.52723963     0.10200
C299        C  0.30471158  0.89974186  0.93762611    -0.03600
C300        C  0.29595027  0.92466513  0.93460603    -0.09400
C301        C  0.29606989  0.94944991  0.95546811    -0.17000
C302        C  0.30493435  0.94967688  0.97954955     0.25100
C303        C  0.31369590  0.92507240  0.98273167    -0.18700
C304        C  0.31359521  0.90027361  0.96195048    -0.07600
C305        C  0.30514306  0.97531041  0.00080669    -0.14100
C306        C  0.30543255  0.99708307  0.01827561    -0.13800
C307        C  0.30585296  0.02357976  0.03848822     0.25000
C308        C  0.29790750  0.02425879  0.06434033    -0.19200
C309        C  0.29815709  0.05031953  0.08364529    -0.07700
C310        C  0.30637940  0.07606960  0.07729613    -0.03700
C311        C  0.31438559  0.07502561  0.05131207    -0.09000
C312        C  0.31411049  0.04894864  0.03206272    -0.16700
H313        H  0.28897767  0.92500473  0.91621760     0.11500
H314        H  0.28925645  0.96844565  0.95279896     0.10700
H315        H  0.32061581  0.92506021  0.00126153     0.10700
H316        H  0.32048553  0.88152716  0.96500247     0.11200
H317        H  0.29147689  0.00471632  0.06949905     0.11300
H318        H  0.29187819  0.05030230  0.10344500     0.11200
H319        H  0.32083291  0.09438968  0.04572687     0.11400
H320        H  0.32029666  0.04864044  0.01208398     0.10200
C321        C  0.23305801  0.13350468  0.34397349    -0.03600
C322        C  0.24010435  0.10648810  0.33636030    -0.09400
C323        C  0.24809333  0.10638008  0.31059089    -0.17000
C324        C  0.24915203  0.13321679  0.29212445     0.25100
C325        C  0.24209531  0.16007008  0.29929654    -0.18700
C326        C  0.23408944  0.16024116  0.32500845    -0.07600
C327        C  0.25758612  0.13334909  0.26601259    -0.14100
C328        C  0.26470946  0.13343909  0.24423154    -0.13800
C329        C  0.27319289  0.13299318  0.21821847     0.25000
C330        C  0.28123975  0.15878683  0.21176585    -0.19200
C331        C  0.28952812  0.15816444  0.18651707    -0.07700
C332        C  0.28985684  0.13166958  0.16740382    -0.03700
C333        C  0.28169030  0.10590744  0.17412836    -0.09000
C334        C  0.27343312  0.10659908  0.19935347    -0.16700
H335        H  0.23951028  0.08547364  0.35036159     0.11500
H336        H  0.25350397  0.08543965  0.30518246     0.10700
H337        H  0.24283978  0.18095420  0.28511515     0.10700
H338        H  0.22880377  0.18142569  0.33012862     0.11200
H339        H  0.28111940  0.17934878  0.22625930     0.11300
H340        H  0.29566423  0.17839926  0.18201349     0.11200
H341        H  0.28167115  0.08512840  0.15995283     0.11400
H342        H  0.26724274  0.08650955  0.20416081     0.10200
C343        C  0.15061452  0.36932827  0.46375065    -0.03600
C344        C  0.14468501  0.34296250  0.45022908    -0.09400
C345        C  0.15206314  0.31716975  0.44134221    -0.17000
C346        C  0.16543380  0.31739738  0.44585457     0.25100
C347        C  0.17141117  0.34341130  0.45929969    -0.18700
C348        C  0.16407882  0.36917299  0.46819520    -0.07600
C349        C  0.17305548  0.29083516  0.43716093    -0.14100
C350        C  0.17964163  0.26863687  0.43072271    -0.13800
C351        C  0.18749158  0.24185173  0.42404323     0.25000
C352        C  0.18782228  0.21658236  0.44455207    -0.19200
C353        C  0.19530348  0.19029089  0.43807482    -0.07700
C354        C  0.20258177  0.18893368  0.41093626    -0.03700
C355        C  0.20228085  0.21464096  0.39057754    -0.09000
C356        C  0.19476876  0.24091999  0.39711798    -0.16700
H357        H  0.13438208  0.34222493  0.44630179     0.11500
H358        H  0.14734202  0.29706690  0.43098288     0.10700
H359        H  0.18175217  0.34374739  0.46302344     0.10700
H360        H  0.16902024  0.38876961  0.47874900     0.11200
H361        H  0.18225105  0.21714125  0.46551116     0.11300
H362        H  0.19533868  0.17101583  0.45431458     0.11200
H363        H  0.20777636  0.21441809  0.36952024     0.11400
H364        H  0.19459719  0.26043459  0.38113372     0.10200
C365        C  0.22971580  0.84908286  0.67051606    -0.03600
C366        C  0.22915558  0.82292091  0.69035245    -0.09400
C367        C  0.23690964  0.82175626  0.71645082    -0.17000
C368        C  0.24533718  0.84665928  0.72310850     0.25100
C369        C  0.24594371  0.87279792  0.70360841    -0.18700
C370        C  0.23818946  0.87405455  0.67752152    -0.07600
C371        C  0.25344238  0.84540393  0.74978314    -0.14100
C372        C  0.26044509  0.84502734  0.77176942    -0.13800
C373        C  0.26906967  0.84537025  0.79754461     0.25000
C374        C  0.26994990  0.87204488  0.81602917    -0.19200
C375        C  0.27857280  0.87278473  0.84057649    -0.07700
C376        C  0.28647360  0.84680768  0.84694808    -0.03700
C377        C  0.28545195  0.82002056  0.82829112    -0.09000
C378        C  0.27680875  0.81933641  0.80379847    -0.16700
H379        H  0.22273734  0.80329695  0.68574444     0.11500
H380        H  0.23635404  0.80140020  0.73137928     0.10700
H381        H  0.25244210  0.89220513  0.70852896     0.10700
H382        H  0.23889197  0.89452147  0.66279691     0.11200
H383        H  0.26402256  0.89236548  0.81135853     0.11300
H384        H  0.27909321  0.89377497  0.85441517     0.11200
H385        H  0.29134272  0.79956118  0.83253300     0.11400
H386        H  0.27622312  0.79856911  0.78962917     0.10200
C387        C  0.21441584  0.90484309  0.57821677    -0.03600
C388        C  0.22276307  0.93042819  0.58386663    -0.09400
C389        C  0.22311877  0.95621554  0.56392124    -0.17000
C390        C  0.21513706  0.95679251  0.53816814     0.25100
C391        C  0.20671656  0.93164604  0.53252382    -0.18700
C392        C  0.20634782  0.90585794  0.55236852    -0.07600
C393        C  0.21562920  0.98302527  0.51735738    -0.14100
C394        C  0.21594616  0.00482201  0.49969267    -0.13800
C395        C  0.21620473  0.03092916  0.47871946     0.25000
C396        C  0.20803472  0.05645925  0.48338464    -0.19200
C397        C  0.20831020  0.08198974  0.46320796    -0.07700
C398        C  0.21676477  0.08229639  0.43798169    -0.03700
C399        C  0.22490561  0.05640844  0.43341074    -0.09000
C400        C  0.22462622  0.03091477  0.45369085    -0.16700
H401        H  0.22909408  0.93044033  0.60351545     0.11500
H402        H  0.22966483  0.97561812  0.56849858     0.10700
H403        H  0.20047869  0.93188785  0.51268535     0.10700
H404        H  0.19977169  0.88666483  0.54732349     0.11200
H405        H  0.20146492  0.05666880  0.50266923     0.11300
H406        H  0.20188464  0.10144735  0.46739954     0.11200
H407        H  0.23153847  0.05588094  0.41428045     0.11400
H408        H  0.23099116  0.01123439  0.44988193     0.10200
C409        C  0.14941642  0.61221530  0.54472455    -0.03600
C410        C  0.16287793  0.61127091  0.54897751    -0.09400
C411        C  0.16976741  0.63847895  0.55657847    -0.17000
C412        C  0.16332464  0.66698476  0.56001986     0.25100
C413        C  0.14995455  0.66823800  0.55587073    -0.18700
C414        C  0.14303176  0.64104277  0.54829159    -0.07600
C415        C  0.17044865  0.69485438  0.56802255    -0.14100
C416        C  0.17658539  0.71786550  0.57502552    -0.13800
C417        C  0.18407021  0.74494002  0.58372933     0.25000
C418        C  0.19210487  0.74350376  0.60933069    -0.19200
C419        C  0.19944534  0.76973445  0.61781416    -0.07700
C420        C  0.19885143  0.79777032  0.60070507    -0.03700
C421        C  0.19072002  0.79894503  0.57498226    -0.09000
C422        C  0.18337838  0.77268943  0.56658780    -0.16700
H423        H  0.16812384  0.58953712  0.54672014     0.11500
H424        H  0.18011955  0.63725943  0.55984408     0.10700
H425        H  0.14488061  0.69023174  0.55847312     0.10700
H426        H  0.13271753  0.64277400  0.54497978     0.11200
H427        H  0.19271034  0.72208202  0.62272055     0.11300
H428        H  0.20561264  0.76797282  0.63767726     0.11200
H429        H  0.19001378  0.82012734  0.56129806     0.11400
H430        H  0.17718395  0.77402069  0.54671699     0.10200
C431        C  0.64976719  0.61108412  0.91385412    -0.03600
C432        C  0.64337715  0.63967433  0.90850931    -0.09400
C433        C  0.65025874  0.66638971  0.89891299    -0.17000
C434        C  0.66361833  0.66500981  0.89446514     0.25100
C435        C  0.67007695  0.63673149  0.89959374    -0.18700
C436        C  0.66322122  0.60997010  0.90919833    -0.07600
C437        C  0.67068701  0.69265728  0.88482589    -0.14100
C438        C  0.67655257  0.71597612  0.87699594    -0.13800
C439        C  0.68357385  0.74393109  0.86803826     0.25000
C440        C  0.68894971  0.74640479  0.83876227    -0.19200
C441        C  0.69597778  0.77330828  0.83028488    -0.07700
C442        C  0.69770128  0.79818741  0.85100818    -0.03700
C443        C  0.69211413  0.79560032  0.88027122    -0.09000
C444        C  0.68513376  0.76863943  0.88871159    -0.16700
H445        H  0.63307703  0.64164647  0.91192897     0.11500
H446        H  0.64515326  0.68817056  0.89505643     0.10700
H447        H  0.68042175  0.63535977  0.89620151     0.10700
H448        H  0.66850987  0.58848341  0.91284346     0.11200
H449        H  0.68777700  0.72745392  0.82253872     0.11300
H450        H  0.70008841  0.77454651  0.80755091     0.11200
H451        H  0.69325329  0.81423318  0.89682745     0.11400
H452        H  0.68101201  0.76700216  0.91143206     0.10200
C453        C  0.65000739  0.36738867  0.99998132    -0.03600
C454        C  0.64374031  0.34093872  0.01285777    -0.09400
C455        C  0.65065108  0.31365657  0.01959036    -0.17000
C456        C  0.66390577  0.31238385  0.01358321     0.25100
C457        C  0.67023714  0.33850326  0.00088690    -0.18700
C458        C  0.66336543  0.36578056  0.99413553    -0.07600
C459        C  0.67106475  0.28439246  0.02047361    -0.14100
C460        C  0.67737116  0.26140826  0.02614222    -0.13800
C461        C  0.68521694  0.23452017  0.03294464     0.25000
C462        C  0.68499951  0.20835117  0.01372117    -0.19200
C463        C  0.69280186  0.18247316  0.02008165    -0.07700
C464        C  0.70094297  0.18244066  0.04581030    -0.03700
C465        C  0.70103580  0.20885370  0.06505400    -0.09000
C466        C  0.69323352  0.23468999  0.05862019    -0.16700
H467        H  0.63351380  0.34116913  0.01782387     0.11500
H468        H  0.64565268  0.29356605  0.02947911     0.10700
H469        H  0.68050321  0.33778545  0.99615464     0.10700
H470        H  0.66858041  0.38543973  0.98421251     0.11200
H471        H  0.67884082  0.20799565  0.99374921     0.11300
H472        H  0.69247350  0.16257022  0.00478036     0.11200
H473        H  0.70717893  0.20968432  0.08501889     0.11400
H474        H  0.69349408  0.25486265  0.07362009     0.10200
C475        C  0.32052427  0.79575996  0.90759081    -0.03600
C476        C  0.31947248  0.76845502  0.88972103    -0.09400
C477        C  0.32700143  0.74217541  0.89628758    -0.17000
C478        C  0.33569668  0.74283595  0.92068949     0.25100
C479        C  0.33693869  0.76997428  0.93837326    -0.18700
C480        C  0.32941497  0.79627755  0.93188913    -0.07600
C481        C  0.34319463  0.71549623  0.92784712    -0.14100
C482        C  0.34931365  0.69235231  0.93395976    -0.13800
C483        C  0.35646969  0.66452705  0.94134365     0.25000
C484        C  0.36965229  0.66301132  0.93464335    -0.19200
C485        C  0.37661527  0.63598223  0.94187452    -0.07700
C486        C  0.37047726  0.61002327  0.95596870    -0.03700
C487        C  0.35718302  0.61184097  0.96251375    -0.09000
C488        C  0.35024977  0.63889595  0.95524810    -0.16700
H489        H  0.31274025  0.76721993  0.87086902     0.11500
H490        H  0.32597189  0.72125657  0.88246186     0.10700
H491        H  0.34365238  0.77072926  0.95730885     0.10700
H492        H  0.33050691  0.81689988  0.94607437     0.11200
H493        H  0.37455762  0.68273118  0.92382793     0.11300
H494        H  0.38678467  0.63557297  0.93631740     0.11200
H495        H  0.35208036  0.59253518  0.97338321     0.11400
H496        H  0.34003572  0.63983333  0.96053257     0.10200
C497        C  0.37275985  0.36582869  0.04110284    -0.03600
C498        C  0.37952580  0.33794902  0.04737213    -0.09400
C499        C  0.37293508  0.31079137  0.05686504    -0.17000
C500        C  0.35951156  0.31108662  0.06024182     0.25100
C501        C  0.35268416  0.33858240  0.05405701    -0.18700
C502        C  0.35923855  0.36575803  0.04457451    -0.07600
C503        C  0.35268773  0.28322204  0.06994552    -0.14100
C504        C  0.34661620  0.26027863  0.07775066    -0.13800
C505        C  0.33896720  0.23331719  0.08637629     0.25000
C506        C  0.33151006  0.23385031  0.11304723    -0.19200
C507        C  0.32367097  0.20809186  0.12079296    -0.07700
C508        C  0.32319792  0.18145029  0.10188480    -0.03700
C509        C  0.33087172  0.18105708  0.07529903    -0.09000
C510        C  0.33868017  0.20683593  0.06761147    -0.16700
H511        H  0.38989891  0.33690203  0.04492363     0.11500
H512        H  0.37830982  0.28957344  0.06154891     0.10700
H513        H  0.34227761  0.33903290  0.05658300     0.10700
H514        H  0.35365103  0.38660867  0.04008374     0.11200
H515        H  0.33165939  0.25429358  0.12770325     0.11300
H516        H  0.31792563  0.20916980  0.14143952     0.11200
H517        H  0.33076526  0.16097055  0.06021299     0.11400
H518        H  0.34439985  0.20622331  0.04687919     0.10200
C519        C  0.46367704  0.48883524  0.98104042    -0.03600
C520        C  0.47087375  0.46179660  0.98801846    -0.09400
C521        C  0.48435543  0.46240619  0.98628865    -0.17000
C522        C  0.49085422  0.48997720  0.97756128     0.25100
C523        C  0.48382045  0.51694894  0.97047944    -0.18700
C524        C  0.47033994  0.51642009  0.97218721    -0.07600
C525        C  0.50473509  0.49061869  0.97599493    -0.14100
C526        C  0.51636674  0.49103126  0.97482858    -0.13800
C527        C  0.53025497  0.49124848  0.97358389     0.25000
C528        C  0.53684652  0.51549209  0.95831621    -0.19200
C529        C  0.55034048  0.51562565  0.95701977    -0.07700
C530        C  0.55745536  0.49144605  0.97100125    -0.03700
C531        C  0.55069615  0.46721333  0.98636016    -0.09000
C532        C  0.53720699  0.46714843  0.98761741    -0.16700
H533        H  0.46615633  0.44007142  0.99473939     0.11500
H534        H  0.48971054  0.44136159  0.99178748     0.10700
H535        H  0.48875790  0.53844274  0.96371842     0.10700
H536        H  0.46521302  0.53775031  0.96676617     0.11200
H537        H  0.53155623  0.53427059  0.94734243     0.11300
H538        H  0.55513026  0.53459308  0.94485787     0.11200
H539        H  0.55576646  0.44830305  0.99757890     0.11400
H540        H  0.53219976  0.44827858  0.99955088     0.10200
loop_ 
_geom_bond_atom_site_label_1 
_geom_bond_atom_site_label_2 
_geom_bond_distance 
_geom_bond_site_symmetry_2 
_ccdc_geom_bond_type 
N1            N2   1.320       .  A
N1            C5   1.344       .  A
N1           Cu9   2.070       .  S
N2            C3   1.343       .  A
N2           Cu8   2.069   1_554  S
C3            C4   1.388       .  A
C3            H6   1.081       .  S
C4            C5   1.388       .  A
C4          C497   1.486       .  S
C5            H7   1.081       .  S
Cu8          N11   2.069       .  S
Cu9          N19   2.071   1_554  S
Cu10         N12   2.073       .  S
Cu10         N18   2.073       .  S
N11          N12   1.320       .  A
N11          C15   1.343       .  A
N12          C13   1.344       .  A
C13          C14   1.389       .  A
C13          H16   1.081       .  S
C14          C15   1.388       .  A
C14         C486   1.486       .  S
C15          H17   1.081       .  S
N18          N19   1.321       .  A
N18          C22   1.344       .  A
N19          C20   1.344       .  A
C20          C21   1.388       .  A
C20          H23   1.081   1_556  S
C21          C22   1.388       .  A
C21         C519   1.486       .  S
C22          H24   1.081       .  S
N25          N26   1.320       .  A
N25          C29   1.345       .  A
N25         Cu33   2.077       .  S
N26          C27   1.344       .  A
N26         Cu32   2.072       .  S
C27          C28   1.388       .  A
C27          H30   1.081       .  S
C28          C29   1.390       .  A
C28         C431   1.488       .  S
C29          H31   1.081       .  S
Cu32         N35   2.071       .  S
Cu33         N43   2.077       .  S
Cu34         N36   2.074       .  S
Cu34         N42   2.074       .  S
N35          N36   1.320       .  A
N35          C39   1.343       .  A
N36          C37   1.345       .  A
C37          C38   1.390       .  A
C37          H40   1.081   1_556  S
C38          C39   1.388       .  A
C38         C453   1.488       .  S
C39          H41   1.081       .  S
N42          N43   1.321       .  A
N42          C46   1.344       .  A
N43          C44   1.345       .  A
C44          C45   1.388       .  A
C44          H47   1.081       .  S
C45          C46   1.388       .  A
C45         C530   1.487       .  S
C46          H48   1.081       .  S
C49          N50   1.356       .  A
C49          N54   1.358       .  A
C49         C420   1.481       .  S
N50          C51   1.357       .  A
C51          N52   1.360       .  A
C51         C387   1.483       .  S
N52          C53   1.361       .  A
C53          N54   1.359       .  A
C53         C365   1.485       .  S
C55          N56   1.357       .  A
C55          N60   1.358       .  A
C55         C354   1.481       .  S
N56          C57   1.358       .  A
C57          N58   1.359       .  A
C57         C398   1.482       .  S
N58          C59   1.360       .  A
C59          N60   1.359       .  A
C59         C321   1.482       .  S
C61          N62   1.358       .  A
C61          N66   1.360       .  A
C61         C508   1.482       .  S
N62          C63   1.357       .  A
C63          N64   1.357       .  A
C63         C310   1.481       .  S
N64          C65   1.358       .  A
C65          N66   1.360       .  A
C65         C332   1.482       .  S
C67          N68   1.358       .  A
C67          N72   1.357       .  A
C67         C475   1.482       .  S
N68          C69   1.359       .  A
C69          N70   1.361       .  A
C69         C376   1.485       .  S
N70          C71   1.360       .  A
C71          N72   1.357       .  A
C71         C299   1.483       .  S
N73          N74   1.320       .  A
N73          C77   1.344       .  A
N73         Cu81   2.071       .  S
N74          C75   1.342       .  A
N74         Cu80   2.062       .  S
C75          C76   1.386       .  A
C75          H78   1.081       .  S
C76          C77   1.388       .  A
C76         C409   1.483       .  S
C77          H79   1.081       .  S
Cu80         N83   2.062       .  S
Cu81         N91   2.072       .  S
Cu82         N84   2.075       .  S
Cu82         N90   2.075       .  S
N83          N84   1.320       .  A
N83          C87   1.341       .  A
N84          C85   1.346       .  A
C85          C86   1.390       .  A
C85          H88   1.081       .  S
C86          C87   1.386       .  A
C86         C343   1.484       .  S
C87          H89   1.081       .  S
N90          N91   1.322       .  A
N90          C94   1.344       .  A
N91          C92   1.344       .  A
C92          C93   1.386       .  A
C92          H95   1.081       .  S
C93          C94   1.387       .  A
C93         C288   1.482       .  S
C94          H96   1.081       .  S
N97          N98   1.320       .  A
N97         C101   1.346       .  A
N97        Cu105   2.071       .  S
N98          C99   1.341       .  A
N98        Cu104   2.060       .  S
C99         C100   1.384       .  A
C99         H102   1.081       .  S
C100        C101   1.388       .  A
C100        C255   1.480       .  S
C101        H103   1.082       .  S
Cu104       N107   2.061       .  S
Cu105       N115   2.072       .  S
Cu106       N108   2.085       .  S
Cu106       N114   2.085       .  S
N107        N108   1.320       .  A
N107        C111   1.341       .  A
N108        C109   1.347       .  A
C109        C110   1.392       .  A
C109        H112   1.081       .  S
C110        C111   1.386       .  A
C110        C233   1.489       .  S
C111        H113   1.081       .  S
N114        N115   1.323       .  A
N114        C118   1.346       .  A
N115        C116   1.343       .  A
C116        C117   1.386       .  A
C116        H119   1.081       .  S
C117        C118   1.389       .  A
C117        C277   1.485       .  S
C118        H120   1.081       .  S
C121        N122   1.358       .  A
C121        N126   1.358       .  A
C121        C464   1.483       .  S
N122        C123   1.359       .  A
C123        N124   1.360       .  A
C123        C189   1.483       .  S
N124        C125   1.359       .  A
C125        N126   1.359       .  A
C125        C211   1.483       .  S
C127        N128   1.359       .  A
C127        N132   1.360       .  A
C127        C442   1.484       .  S
N128        C129   1.359       .  A
C129        N130   1.358       .  A
C129        C222   1.483       .  S
N130        C131   1.359       .  A
C131        N132   1.360       .  A
C131        C167   1.484       .  S
C133        N134   1.358       .  A
C133        N138   1.359       .  A
C133        C266   1.482       .  S
N134        C135   1.358       .  A
C135        N136   1.359       .  A
C135        C145   1.481       .  S
N136        C137   1.359       .  A
C137        N138   1.359       .  A
C137        C178   1.484       .  S
C139        N140   1.359       .  A
C139        N144   1.360       .  A
C139        C244   1.485       .  S
N140        C141   1.359       .  A
C141        N142   1.358       .  A
C141        C156   1.484       .  S
N142        C143   1.359       .  A
C143        N144   1.360       .  A
C143        C200   1.484       .  S
C145        C146   1.407       .  A
C145        C150   1.408       .  A
C146        C147   1.398       .  A
C146        H159   1.083       .  S
C147        C148   1.399       .  A
C147        H160   1.084       .  S
C148        C149   1.399       .  A
C148        C151   1.439       .  S
C149        C150   1.398       .  A
C149        H161   1.083       .  S
C150        H162   1.083       .  S
C151        C152   1.206       .  T
C152        C153   1.439   1_565  S
C153        C154   1.399       .  A
C153        C158   1.399       .  A
C154        C155   1.398       .  A
C154        H163   1.084       .  S
C155        C156   1.409       .  A
C155        H164   1.083       .  S
C156        C157   1.408       .  A
C157        C158   1.398       .  A
C157        H165   1.083       .  S
C158        H166   1.084       .  S
C167        C168   1.408       .  A
C167        C172   1.409       .  A
C168        C169   1.398       .  A
C168        H181   1.083       .  S
C169        C170   1.399       .  A
C169        H182   1.084       .  S
C170        C171   1.399       .  A
C170        C173   1.440       .  S
C171        C172   1.399       .  A
C171        H183   1.084       .  S
C172        H184   1.083       .  S
C173        C174   1.206       .  T
C174        C175   1.439       .  S
C175        C176   1.399       .  A
C175        C180   1.399       .  A
C176        C177   1.399       .  A
C176        H185   1.083       .  S
C177        C178   1.408       .  A
C177        H186   1.083       .  S
C178        C179   1.408       .  A
C179        C180   1.398       .  A
C179        H187   1.083       .  S
C180        H188   1.084       .  S
C189        C190   1.408       .  A
C189        C194   1.408       .  A
C190        C191   1.398       .  A
C190        H203   1.083       .  S
C191        C192   1.399       .  A
C191        H204   1.084       .  S
C192        C193   1.399       .  A
C192        C195   1.439       .  S
C193        C194   1.398       .  A
C193        H205   1.084       .  S
C194        H206   1.083       .  S
C195        C196   1.206       .  T
C196        C197   1.439       .  S
C197        C198   1.400       .  A
C197        C202   1.399       .  A
C198        C199   1.399       .  A
C198        H207   1.083       .  S
C199        C200   1.408       .  A
C199        H208   1.083       .  S
C200        C201   1.408       .  A
C201        C202   1.397       .  A
C201        H209   1.083       .  S
C202        H210   1.084       .  S
C211        C212   1.409       .  A
C211        C216   1.408   1_554  A
C212        C213   1.399       .  A
C212        H225   1.083       .  S
C213        C214   1.400   1_554  A
C213        H226   1.083       .  S
C214        C215   1.398       .  A
C214        C217   1.439       .  S
C215        C216   1.397       .  A
C215        H227   1.084       .  S
C216        H228   1.083       .  S
C217        C218   1.205   1_545  T
C218        C219   1.439       .  S
C219        C220   1.399       .  A
C219        C224   1.399       .  A
C220        C221   1.398       .  A
C220        H229   1.084       .  S
C221        C222   1.408       .  A
C221        H230   1.083       .  S
C222        C223   1.408       .  A
C223        C224   1.398       .  A
C223        H231   1.083       .  S
C224        H232   1.084       .  S
C233        C234   1.408       .  A
C233        C238   1.410       .  A
C234        C235   1.400       .  A
C234        H247   1.081       .  S
C235        C236   1.400       .  A
C235        H248   1.083       .  S
C236        C237   1.398       .  A
C236        C239   1.441       .  S
C237        C238   1.398       .  A
C237        H249   1.084       .  S
C238        H250   1.081       .  S
C239        C240   1.207       .  T
C240        C241   1.441       .  S
C241        C242   1.400       .  A
C241        C246   1.399       .  A
C242        C243   1.400       .  A
C242        H251   1.083       .  S
C243        C244   1.408       .  A
C243        H252   1.083       .  S
C244        C245   1.409       .  A
C245        C246   1.398       .  A
C245        H253   1.083       .  S
C246        H254   1.084       .  S
C255        C256   1.407       .  A
C255        C260   1.407       .  A
C256        C257   1.399       .  A
C256        H269   1.082       .  S
C257        C258   1.400       .  A
C257        H270   1.083       .  S
C258        C259   1.398       .  A
C258        C261   1.437       .  S
C259        C260   1.396       .  A
C259        H271   1.084       .  S
C260        H272   1.082       .  S
C261        C262   1.204       .  T
C262        C263   1.437       .  S
C263        C264   1.398       .  A
C263        C268   1.399       .  A
C264        C265   1.397       .  A
C264        H273   1.084       .  S
C265        C266   1.408       .  A
C265        H274   1.083       .  S
C266        C267   1.408       .  A
C267        C268   1.398       .  A
C267        H275   1.083       .  S
C268        H276   1.084       .  S
C277        C278   1.409       .  A
C277        C282   1.408       .  A
C278        C279   1.398       .  A
C278        H291   1.081       .  S
C279        C280   1.398       .  A
C279        H292   1.084       .  S
C280        C281   1.399       .  A
C280        C283   1.439   1_655  S
C281        C282   1.398       .  A
C281        H293   1.084       .  S
C282        H294   1.082       .  S
C283        C284   1.205       .  T
C284        C285   1.439       .  S
C285        C286   1.398       .  A
C285        C290   1.399       .  A
C286        C287   1.397       .  A
C286        H295   1.084       .  S
C287        C288   1.407       .  A
C287        H296   1.082       .  S
C288        C289   1.408       .  A
C289        C290   1.399       .  A
C289        H297   1.082       .  S
C290        H298   1.083       .  S
C299        C300   1.407       .  A
C299        C304   1.409       .  A
C300        C301   1.399       .  A
C300        H313   1.083       .  S
C301        C302   1.399       .  A
C301        H314   1.083       .  S
C302        C303   1.398       .  A
C302        C305   1.437   1_556  S
C303        C304   1.397       .  A
C303        H315   1.084   1_556  S
C304        H316   1.083       .  S
C305        C306   1.204       .  T
C306        C307   1.437   1_565  S
C307        C308   1.399       .  A
C307        C312   1.399       .  A
C308        C309   1.398       .  A
C308        H317   1.084       .  S
C309        C310   1.408       .  A
C309        H318   1.083       .  S
C310        C311   1.408       .  A
C311        C312   1.397       .  A
C311        H319   1.083       .  S
C312        H320   1.084       .  S
C321        C322   1.408       .  A
C321        C326   1.408       .  A
C322        C323   1.398       .  A
C322        H335   1.083       .  S
C323        C324   1.399       .  A
C323        H336   1.084       .  S
C324        C325   1.398       .  A
C324        C327   1.438       .  S
C325        C326   1.397       .  A
C325        H337   1.084       .  S
C326        H338   1.083       .  S
C327        C328   1.205       .  T
C328        C329   1.438       .  S
C329        C330   1.400       .  A
C329        C334   1.398       .  A
C330        C331   1.399       .  A
C330        H339   1.083       .  S
C331        C332   1.408       .  A
C331        H340   1.083       .  S
C332        C333   1.408       .  A
C333        C334   1.396       .  A
C333        H341   1.083       .  S
C334        H342   1.084       .  S
C343        C344   1.408       .  A
C343        C348   1.409       .  A
C344        C345   1.399       .  A
C344        H357   1.081       .  S
C345        C346   1.399       .  A
C345        H358   1.083       .  S
C346        C347   1.397       .  A
C346        C349   1.437       .  S
C347        C348   1.395       .  A
C347        H359   1.084       .  S
C348        H360   1.081       .  S
C349        C350   1.204       .  T
C350        C351   1.437       .  S
C351        C352   1.398       .  A
C351        C356   1.399       .  A
C352        C353   1.396       .  A
C352        H361   1.084       .  S
C353        C354   1.408       .  A
C353        H362   1.083       .  S
C354        C355   1.408       .  A
C355        C356   1.398       .  A
C355        H363   1.083       .  S
C356        H364   1.083       .  S
C365        C366   1.409       .  A
C365        C370   1.408       .  A
C366        C367   1.399       .  A
C366        H379   1.083       .  S
C367        C368   1.399       .  A
C367        H380   1.083       .  S
C368        C369   1.400       .  A
C368        C371   1.441       .  S
C369        C370   1.399       .  A
C369        H381   1.084       .  S
C370        H382   1.083       .  S
C371        C372   1.207       .  T
C372        C373   1.441       .  S
C373        C374   1.400       .  A
C373        C378   1.399       .  A
C374        C375   1.399       .  A
C374        H383   1.083       .  S
C375        C376   1.408       .  A
C375        H384   1.083       .  S
C376        C377   1.409       .  A
C377        C378   1.399       .  A
C377        H385   1.083       .  S
C378        H386   1.084       .  S
C387        C388   1.407       .  A
C387        C392   1.409       .  A
C388        C389   1.399       .  A
C388        H401   1.083       .  S
C389        C390   1.400       .  A
C389        H402   1.083       .  S
C390        C391   1.398       .  A
C390        C393   1.438       .  S
C391        C392   1.396       .  A
C391        H403   1.084       .  S
C392        H404   1.083       .  S
C393        C394   1.205   1_565  T
C394        C395   1.438       .  S
C395        C396   1.398       .  A
C395        C400   1.399       .  A
C396        C397   1.397       .  A
C396        H405   1.084       .  S
C397        C398   1.408       .  A
C397        H406   1.083       .  S
C398        C399   1.408       .  A
C399        C400   1.398       .  A
C399        H407   1.083       .  S
C400        H408   1.083       .  S
C409        C410   1.408       .  A
C409        C414   1.408       .  A
C410        C411   1.397       .  A
C410        H423   1.081       .  S
C411        C412   1.398       .  A
C411        H424   1.084       .  S
C412        C413   1.398       .  A
C412        C415   1.436       .  S
C413        C414   1.398       .  A
C413        H425   1.084       .  S
C414        H426   1.081       .  S
C415        C416   1.204       .  T
C416        C417   1.436       .  S
C417        C418   1.399       .  A
C417        C422   1.398       .  A
C418        C419   1.397       .  A
C418        H427   1.084       .  S
C419        C420   1.407       .  A
C419        H428   1.083       .  S
C420        C421   1.409       .  A
C421        C422   1.397       .  A
C421        H429   1.083       .  S
C422        H430   1.084       .  S
C431        C432   1.409       .  A
C431        C436   1.409       .  A
C432        C433   1.399       .  A
C432        H445   1.081       .  S
C433        C434   1.399       .  A
C433        H446   1.084       .  S
C434        C435   1.399       .  A
C434        C437   1.441       .  S
C435        C436   1.399       .  A
C435        H447   1.084       .  S
C436        H448   1.081       .  S
C437        C438   1.207       .  T
C438        C439   1.441       .  S
C439        C440   1.400       .  A
C439        C444   1.399       .  A
C440        C441   1.399       .  A
C440        H449   1.083       .  S
C441        C442   1.408       .  A
C441        H450   1.083       .  S
C442        C443   1.408       .  A
C443        C444   1.398       .  A
C443        H451   1.083       .  S
C444        H452   1.084       .  S
C453        C454   1.409   1_556  A
C453        C458   1.409       .  A
C454        C455   1.399       .  A
C454        H467   1.081       .  S
C455        C456   1.399       .  A
C455        H468   1.083       .  S
C456        C457   1.398       .  A
C456        C459   1.439       .  S
C457        C458   1.397   1_554  A
C457        H469   1.084   1_554  S
C458        H470   1.081       .  S
C459        C460   1.206       .  T
C460        C461   1.439       .  S
C461        C462   1.399       .  A
C461        C466   1.399       .  A
C462        C463   1.399       .  A
C462        H471   1.084   1_554  S
C463        C464   1.408       .  A
C463        H472   1.083       .  S
C464        C465   1.408       .  A
C465        C466   1.398       .  A
C465        H473   1.083       .  S
C466        H474   1.084       .  S
C475        C476   1.407       .  A
C475        C480   1.409       .  A
C476        C477   1.398       .  A
C476        H489   1.083       .  S
C477        C478   1.399       .  A
C477        H490   1.084       .  S
C478        C479   1.399       .  A
C478        C481   1.438       .  S
C479        C480   1.397       .  A
C479        H491   1.084       .  S
C480        H492   1.083       .  S
C481        C482   1.205       .  T
C482        C483   1.438       .  S
C483        C484   1.398       .  A
C483        C488   1.398       .  A
C484        C485   1.398       .  A
C484        H493   1.084       .  S
C485        C486   1.409       .  A
C485        H494   1.081       .  S
C486        C487   1.409       .  A
C487        C488   1.398       .  A
C487        H495   1.081       .  S
C488        H496   1.084       .  S
C497        C498   1.409       .  A
C497        C502   1.408       .  A
C498        C499   1.398       .  A
C498        H511   1.081       .  S
C499        C500   1.398       .  A
C499        H512   1.084       .  S
C500        C501   1.398       .  A
C500        C503   1.437       .  S
C501        C502   1.397       .  A
C501        H513   1.084       .  S
C502        H514   1.081       .  S
C503        C504   1.204       .  T
C504        C505   1.437       .  S
C505        C506   1.399       .  A
C505        C510   1.398       .  A
C506        C507   1.398       .  A
C506        H515   1.084       .  S
C507        C508   1.408       .  A
C507        H516   1.083       .  S
C508        C509   1.409       .  A
C509        C510   1.397       .  A
C509        H517   1.083       .  S
C510        H518   1.084       .  S
C519        C520   1.409       .  A
C519        C524   1.409       .  A
C520        C521   1.398       .  A
C520        H533   1.081       .  S
C521        C522   1.399       .  A
C521        H534   1.084       .  S
C522        C523   1.398       .  A
C522        C525   1.439       .  S
C523        C524   1.398       .  A
C523        H535   1.084       .  S
C524        H536   1.081       .  S
C525        C526   1.206       .  T
C526        C527   1.439       .  S
C527        C528   1.399       .  A
C527        C532   1.398       .  A
C528        C529   1.399       .  A
C528        H537   1.084       .  S
C529        C530   1.409       .  A
C529        H538   1.081       .  S
C530        C531   1.409       .  A
C531        C532   1.398       .  A
C531        H539   1.081       .  S
C532        H540   1.084       .  S
