geometry optimzed in LAMMPS
_audit_creation_date              2020-11-30 
_audit_creation_method            'lammps2cif' 
_symmetry_space_group_name_H-M    'P1' 
_symmetry_Int_Tables_number       1 
_symmetry_cell_setting            triclinic 
loop_ 
_symmetry_equiv_pos_as_xyz 
  x,y,z 
_cell_length_a                    32.35072208 
_cell_length_b                    32.41606553814365 
_cell_length_c                    79.04928023782205 
_cell_angle_alpha                 89.98293329016819 
_cell_angle_beta                  89.95338726852343 
_cell_angle_gamma                 120.09811472174442 
loop_ 
_atom_site_label 
_atom_site_type_symbol 
_atom_site_fract_x 
_atom_site_fract_y 
_atom_site_fract_z 
_atom_site_charge 
O1          O  0.07711000  0.29084878  0.32999846    -0.87800
C2          C  0.18601039  0.37476858  0.29718388     0.88200
Mg3        Mg  0.06918981  0.31622319  0.35440887     1.58100
O4          O  0.19812981  0.28452523  0.31740015    -0.87600
O5          O  0.08472126  0.23360560  0.31851749    -0.74900
C6          C  0.28404895  0.41038798  0.38863990     0.93200
O7          O  0.12906631  0.40453018  0.32477568    -0.74700
O8          O  0.24868768  0.41736626  0.38843222    -0.82200
Mg9        Mg  0.08730465  0.33686970  0.30867940     1.58000
C10         C  0.32842417  0.31807879  0.33858164     0.93200
O11         O  0.04246974  0.27513821  0.29016479    -0.80500
H12         H  0.17289615  0.21545610  0.32233079    -0.05800
C13         C  0.27072450  0.41633168  0.33906256     0.88100
O14         O  0.10543351  0.27986254  0.36782006    -0.75000
O15         O  0.15220506  0.33687893  0.30238289    -0.87700
O16         O  0.31062934  0.31998980  0.32443210    -0.80600
C17         C  0.24515041  0.30516866  0.27552541     0.93300
C18         C  0.05184901  0.25411976  0.27841733     0.93100
Mg19       Mg  0.24530500  0.32576825  0.35885231     1.58000
O20         O  0.28944170  0.38477816  0.37768114    -0.80500
O21         O  0.20319411  0.25911736  0.34249529    -0.74700
O22         O  0.20058696  0.28963185  0.27731487    -0.80600
O23         O  0.01924748  0.33754305  0.31509220    -0.82300
O24         O  0.13588344  0.37536671  0.39045684    -0.80600
C25         C  0.19122036  0.25169089  0.32704035     0.87600
O26         O  0.18212814  0.32830390  0.36506948    -0.87700
O27         O  0.25704956  0.37336592  0.33788113    -0.87800
O28         O  0.25004271  0.43167364  0.34871786    -0.74900
Mg29       Mg  0.14481441  0.26767372  0.29859179     1.58000
O30         O  0.27487150  0.32578363  0.28745557    -0.82300
H31         H  0.03512538  0.22243725  0.33643792    -0.06000
O32         O  0.13634217  0.38083327  0.34994560    -0.87500
H33         H  0.16046571  0.44949399  0.34457106    -0.05800
H34         H  0.15560678  0.26743066  0.37814424    -0.06000
C35         C  0.14227849  0.41299671  0.34011765     0.87600
C36         C  0.06413822  0.24809092  0.32862058     0.88100
C37         C  0.14838442  0.29127179  0.37079567     0.88200
H38         H  0.30008898  0.44138632  0.33123107    -0.06000
O39         O  0.22898305  0.38668469  0.30045742    -0.75000
Mg40       Mg  0.19073682  0.39827780  0.36870919     1.58000
H41         H  0.17876936  0.39898653  0.29008218    -0.06000
C42         C  0.00272634  0.34282132  0.32902044     0.93200
O43         O  0.06215850  0.34470324  0.38004911    -0.82200
C44         C  0.09206733  0.36356618  0.39207549     0.93200
O45         O  0.08948629  0.25109565  0.27841930    -0.82200
Mg46       Mg  0.26533654  0.34978692  0.31344670     1.58200
O47         O  0.02167037  0.34346975  0.34321179    -0.80600
O48         O  0.31230455  0.32316824  0.35260992    -0.82200
C49         C  0.34386637  0.19384161  0.18409372     0.02800
C50         C  0.33542722  0.14654064  0.18311182     0.02800
C51         C  0.34532136  0.13050801  0.16795398    -0.17800
C52         C  0.36465314  0.16111157  0.15404413     0.02800
C53         C  0.37316931  0.20806743  0.15507425     0.02800
C54         C  0.36325600  0.22430601  0.17009057    -0.17800
H55         H  0.36854189  0.26007941  0.17060515     0.04800
H56         H  0.33979001  0.09467725  0.16719099     0.04800
C57         C  0.82191382  0.13119085  0.18042651     0.02800
C58         C  0.86859165  0.17069320  0.17997973     0.02800
C59         C  0.88559905  0.19750133  0.16510671    -0.17800
C60         C  0.85612195  0.18651039  0.15083817     0.02800
C61         C  0.80908057  0.14666140  0.15128699     0.02800
C62         C  0.79239895  0.11967785  0.16620109    -0.17800
H63         H  0.75696603  0.08841704  0.16653131     0.04800
H64         H  0.92128918  0.22839187  0.16489271     0.04800
O65         O  0.26030274  0.87746527  0.33616206    -0.87800
C66         C  0.15103033  0.84926932  0.36837154     0.88200
Mg67       Mg  0.26590787  0.91031355  0.31197157     1.58100
O68         O  0.14168449  0.74907998  0.34746485    -0.87600
O69         O  0.25505123  0.81284986  0.34694021    -0.74900
C70         C  0.05083482  0.78713545  0.27691849     0.93200
O71         O  0.20535166  0.93614779  0.34135802    -0.74700
O72         O  0.08783513  0.82848166  0.27657894    -0.82200
Mg73       Mg  0.24910674  0.91245234  0.35751228     1.58000
C74         C  0.01018751  0.64955658  0.32689202     0.93200
O75         O  0.29472760  0.89647259  0.37614410    -0.80500
H76         H  0.16780576  0.70624294  0.34203471    -0.05800
C77         C  0.06478801  0.80470528  0.32634445     0.88100
O78         O  0.23127943  0.83761124  0.29844633    -0.75000
O79         O  0.18579664  0.84650440  0.36341470    -0.87700
O80         O  0.02981032  0.66920206  0.34083797    -0.86000
C81         C  0.09527246  0.72183005  0.38950370     0.93300
C82         C  0.28758236  0.86510474  0.38731783     0.93100
Mg83       Mg  0.09070538  0.74139687  0.30634896     1.58000
O84         O  0.04408150  0.75678204  0.28840091    -0.80500
O85         O  0.13462012  0.71781398  0.32233258    -0.74700
O86         O  0.13919550  0.75326177  0.38799349    -0.80600
O87         O  0.31571112  0.98339398  0.35132525    -0.82300
O88         O  0.20016559  0.90150659  0.27517174    -0.80600
C89         C  0.14845028  0.72340704  0.33762540     0.87600
O90         O  0.15389700  0.80744815  0.30011267    -0.87700
O91         O  0.07997244  0.77665085  0.32752632    -0.87800
O92         O  0.08421022  0.84054265  0.31654192    -0.74900
Mg93       Mg  0.19474502  0.78555878  0.36671708     1.58000
O94         O  0.06598877  0.71003125  0.37729165    -0.82300
H95         H  0.30450919  0.85401265  0.32936542    -0.06000
O96         O  0.19756381  0.90479602  0.31621407    -0.87500
H97         H  0.17151445  0.94757785  0.32182663    -0.05800
H98         H  0.18318798  0.77462896  0.28772158    -0.06000
C99         C  0.19095862  0.93040256  0.32612738     0.87600
C100        C  0.27488589  0.84887876  0.33721996     0.88100
C101        C  0.18886284  0.80532357  0.29498541     0.88200
H102        H  0.03500493  0.79928811  0.33416644    -0.06000
O103        O  0.10850168  0.81744434  0.36484444    -0.75000
Mg104      Mg  0.14445022  0.86803837  0.29676516     1.58000
H105        H  0.15703944  0.88031308  0.37548030    -0.06000
C106        C  0.32974439  0.00514682  0.33725234     0.93200
O107        O  0.27185920  0.94632436  0.28685879    -0.82200
C108        C  0.24342379  0.93539279  0.27441774     0.93200
O109        O  0.25082240  0.82366448  0.38709508    -0.82200
Mg110      Mg  0.07361293  0.74442462  0.35173554     1.58200
O111        O  0.31042497  0.98532417  0.32327315    -0.80600
O112        O  0.02418555  0.67113386  0.31280461    -0.82200
O113        O  0.63027573  0.74684806  0.33860094    -0.87800
C114        C  0.71418232  0.85680783  0.37064258     0.88200
Mg115      Mg  0.65642868  0.73953442  0.31448203     1.58100
O116        O  0.62377515  0.86881817  0.35052483    -0.87600
O117        O  0.57303985  0.75594631  0.34947778    -0.74900
C118        C  0.74922617  0.95312025  0.27933900     0.93200
O119        O  0.74436499  0.79920075  0.34376187    -0.74700
O120        O  0.75526974  0.91728108  0.27955502    -0.82200
Mg121      Mg  0.67625120  0.75756999  0.35980436     1.58000
C122        C  0.65562802  0.99778072  0.32903940     0.93200
O123        O  0.61347192  0.71311940  0.37795469    -0.80500
H124        H  0.55447522  0.84373659  0.34583341    -0.05800
C125        C  0.75552758  0.94134790  0.32898011     0.88100
O126        O  0.61904490  0.77495461  0.30110621    -0.75000
O127        O  0.67624693  0.82269579  0.36560710    -0.87700
O128        O  0.65774213  0.98069587  0.34331524    -0.80600
C129        C  0.64513866  0.91588182  0.39246872     0.93300
C130        C  0.59187272  0.72243427  0.38950955     0.93100
Mg131      Mg  0.66478911  0.91521816  0.30919857     1.58000
O132        O  0.72470750  0.95952609  0.29052336    -0.80500
O133        O  0.59782202  0.87349775  0.32550693    -0.74700
O134        O  0.63108658  0.87168118  0.39065355    -0.80600
O135        O  0.67759498  0.68944901  0.35371488    -0.82300
O136        O  0.71287996  0.80568707  0.27827671    -0.80600
C137        C  0.59067327  0.86183619  0.34099565     0.87600
O138        O  0.66711307  0.85184426  0.30341759    -0.87700
O139        O  0.71246809  0.92777372  0.33015696    -0.87800
O140        O  0.77087845  0.92047551  0.31942312    -0.74900
Mg141      Mg  0.60723520  0.81584301  0.36938615     1.58000
O142        O  0.66371640  0.94551244  0.38038620    -0.82300
H143        H  0.56190089  0.70592193  0.33182111    -0.06000
O144        O  0.72027705  0.80710864  0.31876712    -0.87500
H145        H  0.78919130  0.83109706  0.32390399    -0.05800
H146        H  0.60547507  0.82424053  0.29071693    -0.06000
C147        C  0.75269302  0.81290030  0.32845682     0.87600
C148        C  0.58752344  0.73469060  0.33969102     0.88100
C149        C  0.62991566  0.81764683  0.29797540     0.88200
H150        H  0.78065223  0.97082043  0.33671425    -0.06000
O151        O  0.72547053  0.89961351  0.36742968    -0.75000
Mg152      Mg  0.73705951  0.86066961  0.29969981     1.58000
H153        H  0.73891517  0.85001093  0.37762355    -0.06000
C154        C  0.68550521  0.67458658  0.33985544     0.93200
O155        O  0.68441909  0.73279633  0.28907393    -0.82200
C156        C  0.70152646  0.76212912  0.27685005     0.93200
O157        O  0.58968324  0.76043694  0.38956260    -0.82200
Mg158      Mg  0.68838659  0.93606708  0.35447036     1.58200
O159        O  0.68663127  0.69403544  0.32570974    -0.80600
O160        O  0.66160191  0.98173286  0.31514012    -0.82200
C161        C  0.81099725  0.67474492  0.18231981     0.02800
C162        C  0.85350685  0.67266204  0.18216761     0.02800
C163        C  0.86691312  0.65853181  0.16732030    -0.17800
C164        C  0.83897551  0.64737111  0.15258446     0.02800
C165        C  0.79755667  0.65145443  0.15270688     0.02800
C166        C  0.78382164  0.66471876  0.16757516    -0.17800
H167        H  0.75149734  0.66703314  0.16769005     0.04800
H168        H  0.89944089  0.65664116  0.16719084     0.04800
O169        O  0.44786983  0.03700419  0.00431815    -0.87800
C170        C  0.47941942  0.95815517  0.03669243     0.88200
Mg171      Mg  0.41530180  0.01088617  0.98007297     1.58100
O172        O  0.57792718  0.04882167  0.01480623    -0.87600
O173        O  0.51310319  0.09707689  0.01457239    -0.74900
C174        C  0.53408262  0.91515089  0.94487581     0.93200
O175        O  0.38851303  0.92284240  0.00981834    -0.74700
O176        O  0.49148971  0.90740894  0.94585964    -0.82200
Mg177      Mg  0.41348214  0.99026527  0.02571658     1.58000
C178        C  0.67697032  0.01562798  0.99313814     0.93200
O179        O  0.42888989  0.05012577  0.04458066    -0.80500
H180        H  0.62024736  0.11747933  0.00871907    -0.05800
C181        C  0.52073845  0.91495835  0.99510915     0.88100
O182        O  0.48783409  0.04768111  0.96658842    -0.75000
O183        O  0.48069425  0.99458280  0.03133048    -0.87700
O184        O  0.65953167  0.01826543  0.00730881    -0.80600
C185        C  0.60926612  0.03422125  0.05676204     0.93300
C186        C  0.46097975  0.07662538  0.05515585     0.93100
Mg187      Mg  0.58290118  0.00305661  0.97369579     1.58000
O188        O  0.56657779  0.94225157  0.95521936    -0.80500
O189        O  0.60767310  0.07134159  0.98940159    -0.74700
O190        O  0.57548419  0.04362222  0.05577377    -0.80600
O191        O  0.34239160  0.98555519  0.01961439    -0.82300
O192        O  0.41824149  0.94670656  0.94459059    -0.80600
C193        C  0.60287390  0.08066635  0.00463946     0.87600
O194        O  0.51608609  0.99901149  0.96808786    -0.87700
O195        O  0.54994263  0.95812886  0.99548069    -0.87800
O196        O  0.48356943  0.89798338  0.98594676    -0.74900
Mg197      Mg  0.54163045  0.06543364  0.03423193     1.58000
O198        O  0.62135837  0.01778442  0.04430158    -0.82300
H199        H  0.47048073  0.10440187  0.99745840    -0.06000
O200        O  0.41904748  0.94689583  0.98463987    -0.87500
H201        H  0.37489588  0.87808894  0.98999095    -0.05800
H202        H  0.54965716  0.06059825  0.95539375    -0.06000
C203        C  0.39301464  0.91456937  0.99445739     0.87600
C204        C  0.47629343  0.08030226  0.00523179     0.88100
C205        C  0.51891878  0.03624490  0.96285039     0.88200
H206        H  0.52621696  0.89120313  0.00319810    -0.06000
O207        O  0.51224093  0.94878494  0.03329103    -0.75000
Mg208      Mg  0.45445095  0.92801973  0.96585914     1.58000
H209        H  0.44910493  0.93312037  0.04417693    -0.06000
C210        C  0.32074751  0.97979709  0.00560007     0.93200
O211        O  0.38088198  0.98396495  0.95436385    -0.82200
C212        C  0.38926961  0.96220494  0.94266893     0.93200
O213        O  0.50350870  0.08410963  0.05438206    -0.82200
Mg214      Mg  0.58452606  0.98699102  0.01928120     1.58200
O215        O  0.34033700  0.98161631  0.99141948    -0.80600
O216        O  0.65348842  0.00661432  0.97942568    -0.82200
O217        O  0.54648540  0.59049264  0.99545270    -0.87800
C218        C  0.51900666  0.47792424  0.96467384     0.88200
Mg219      Mg  0.57983630  0.60008721  0.01965463     1.58100
O220        O  0.41907854  0.46852815  0.98595099    -0.87600
O221        O  0.48043992  0.58194310  0.98468850    -0.74900
C222        C  0.46876596  0.38831123  0.05652934     0.93200
O223        O  0.60932057  0.53902500  0.99101285    -0.74700
O224        O  0.50958243  0.42569989  0.05567158    -0.82200
Mg225      Mg  0.58161495  0.57805211  0.97444272     1.58000
C226        C  0.32247109  0.33782883  0.00837844     0.93200
O227        O  0.56314657  0.62005763  0.95529532    -0.80500
H228        H  0.37427923  0.49254452  0.99112323    -0.05800
C229        C  0.48045712  0.39798863  0.00672590     0.88100
O230        O  0.50706168  0.56355037  0.03321289    -0.75000
O231        O  0.51614823  0.51258995  0.96961595    -0.87700
O232        O  0.33977405  0.35782813  0.99419151    -0.80600
C233        C  0.39049061  0.41918667  0.94428144     0.93300
C234        C  0.53124912  0.60958733  0.94402613     0.93100
Mg235      Mg  0.41542869  0.42132058  0.02736851     1.58000
O236        O  0.43550160  0.37963604  0.04603205    -0.80500
O237        O  0.38778191  0.46146710  0.01106087    -0.74700
O238        O  0.42319133  0.46258002  0.94549561    -0.80600
O239        O  0.65113038  0.64647140  0.97977415    -0.82300
O240        O  0.57536324  0.53744622  0.05617489    -0.80600
C241        C  0.39279234  0.47469405  0.99569779     0.87600
O242        O  0.48051615  0.48673195  0.03239033    -0.87700
O243        O  0.44962445  0.40978902  0.00599486    -0.87800
O244        O  0.51752803  0.42044868  0.01583442    -0.74900
Mg245      Mg  0.45409112  0.51950634  0.96601256     1.58000
O246        O  0.37758569  0.39073790  0.95678582    -0.82300
H247        H  0.52178917  0.63422167  0.00132613    -0.06000
O248        O  0.57766728  0.53337017  0.01591671    -0.87500
H249        H  0.62392885  0.51075263  0.01150078    -0.05800
H250        H  0.44527157  0.51414966  0.04435675    -0.06000
C251        C  0.60478013  0.52751962  0.00651838     0.87600
C252        C  0.51701190  0.60388483  0.99404835     0.88100
C253        C  0.47645378  0.52088499  0.03711455     0.88200
H254        H  0.47647773  0.36866876  0.99900455    -0.06000
O255        O  0.48708857  0.43543473  0.96825322    -0.75000
Mg256      Mg  0.54382127  0.48113956  0.03525612     1.58000
H257        H  0.54987844  0.48392789  0.95738799    -0.06000
C258        C  0.67329607  0.66236032  0.99367250     0.93200
O259        O  0.61565743  0.61066453  0.04528401    -0.82200
C260        C  0.60540436  0.58174211  0.05756289     0.93200
O261        O  0.49048987  0.57218091  0.94484458    -0.82200
Mg262      Mg  0.41456731  0.40073465  0.98214083     1.58200
O263        O  0.65422810  0.64477446  0.00794172    -0.80600
O264        O  0.34621559  0.35208590  0.02205219    -0.82200
O265        O  0.04088998  0.44941060  0.99636269    -0.87800
C266        C  0.95852383  0.47528502  0.96370286     0.88200
Mg267      Mg  0.01661574  0.41785396  0.02093551     1.58100
O268        O  0.05002047  0.57672806  0.98392497    -0.87600
O269        O  0.09952283  0.51336068  0.98476644    -0.74900
C270        C  0.92448963  0.54004179  0.05611312     0.93200
O271        O  0.92681407  0.38950168  0.99168557    -0.74700
O272        O  0.91984219  0.49865068  0.05616417    -0.82200
Mg273      Mg  0.99383127  0.41309622  0.97532280     1.58000
C274        C  0.01715254  0.67598702  0.00452044     0.93200
O275        O  0.05504291  0.42774885  0.95679601    -0.80500
H276        H  0.11909704  0.62014899  0.98926816    -0.05800
C277        C  0.91735855  0.52033175  0.00593551     0.88100
O278        O  0.05386624  0.49121338  0.03386178    -0.75000
O279        O  0.99605950  0.47845142  0.96882881    -0.87700
O280        O  0.01700921  0.65606653  0.99061531    -0.80600
C281        C  0.03157952  0.60345603  0.94181631     0.93300
C282        C  0.07790610  0.45765525  0.94506722     0.93100
Mg283      Mg  0.00729934  0.58503329  0.02545968     1.58000
O284        O  0.94644611  0.57005691  0.04429996    -0.80500
O285        O  0.07426903  0.60853215  0.00899559    -0.74700
O286        O  0.04246843  0.57080103  0.94293601    -0.80600
O287        O  0.99018662  0.34337420  0.98183602    -0.82300
O288        O  0.95589151  0.42359310  0.05685359    -0.80600
C289        C  0.08252347  0.60274440  0.99371417     0.87600
O290        O  0.00523330  0.51941337  0.03197665    -0.87700
O291        O  0.96053915  0.54883424  0.00442180    -0.87800
O292        O  0.90179175  0.48515257  0.01601920    -0.74900
Mg293      Mg  0.06586970  0.53915929  0.96475885     1.58000
O294        O  0.01420184  0.61475652  0.95422013    -0.82300
H295        H  0.10914806  0.47423015  0.00275408    -0.06000
O296        O  0.95144698  0.42061993  0.01681479    -0.87500
H297        H  0.88229158  0.37731774  0.01155582    -0.05800
H298        H  0.06745707  0.55401321  0.04428766    -0.06000
C299        C  0.91882016  0.39477627  0.00704144     0.87600
C300        C  0.08402696  0.47828445  0.99490337     0.88100
C301        C  0.04277767  0.52275894  0.03716930     0.88200
H302        H  0.89228410  0.52485195  0.99822908    -0.06000
O303        O  0.94785724  0.50717797  0.96694517    -0.75000
Mg304      Mg  0.93518088  0.45830414  0.03576383     1.58000
H305        H  0.93356369  0.44397992  0.95666725    -0.06000
C306        C  0.98553726  0.32231578  0.99586694     0.93200
O307        O  0.99167097  0.38477646  0.04707041    -0.82200
C308        C  0.97091365  0.39434995  0.05883618     0.93200
O309        O  0.08230470  0.49891647  0.94471714    -0.82200
Mg310      Mg  0.98621950  0.58054831  0.97988202     1.58200
O311        O  0.98773605  0.34216705  0.01002593    -0.80600
O312        O  0.01018913  0.65484868  0.01868902    -0.82200
O313        O  0.29064311  0.07488029  0.66965691    -0.87800
C314        C  0.37197526  0.18535880  0.70179343     0.88200
Mg315      Mg  0.31626334  0.06790136  0.64530502     1.58100
O316        O  0.28092927  0.19394766  0.68052709    -0.87600
O317        O  0.23148298  0.08073949  0.68038130    -0.74900
C318        C  0.41224606  0.28218121  0.61023548     0.93200
O319        O  0.40447022  0.12879454  0.67475163    -0.74700
O320        O  0.41600718  0.24501609  0.61040660    -0.82200
Mg321      Mg  0.33692236  0.08642279  0.69094390     1.58000
C322        C  0.31364642  0.32569543  0.65926080     0.93200
O323        O  0.27595068  0.04158313  0.70994652    -0.80500
H324        H  0.21198631  0.16843476  0.67496829    -0.05800
C325        C  0.41420417  0.26940288  0.66010841     0.88100
O326        O  0.27894043  0.10362742  0.63214751    -0.75000
O327        O  0.33484028  0.15038153  0.69666722    -0.87700
O328        O  0.31138800  0.30571570  0.67340863    -0.80600
C329        C  0.29759419  0.23975353  0.72253695     0.93300
C330        C  0.25280158  0.05011818  0.72115074     0.93100
Mg331      Mg  0.32590047  0.24465952  0.63951043     1.58000
O332        O  0.38864765  0.29004703  0.62143169    -0.80500
O333        O  0.25746227  0.20161386  0.65536904    -0.74700
O334        O  0.28721124  0.19647968  0.72127081    -0.80600
O335        O  0.33926707  0.01922205  0.68462181    -0.82300
O336        O  0.37574780  0.13388586  0.60940729    -0.80600
C337        C  0.24868418  0.18748044  0.67062977     0.87600
O338        O  0.32767011  0.18068925  0.63375354    -0.87700
O339        O  0.37110478  0.25585284  0.66095342    -0.87800
O340        O  0.43006874  0.24895203  0.65055452    -0.74900
Mg341      Mg  0.26462908  0.14129056  0.69992784     1.58000
O342        O  0.31456899  0.26880379  0.71022410    -0.82300
H343        H  0.22270324  0.03071384  0.66307740    -0.06000
O344        O  0.38027507  0.13563155  0.64963139    -0.87500
H345        H  0.44928260  0.16065207  0.65490346    -0.05800
H346        H  0.26527409  0.15256683  0.62152502    -0.06000
C347        C  0.41272994  0.14204570  0.65940800     0.87600
C348        C  0.24743559  0.06048664  0.67079114     0.88100
C349        C  0.29004247  0.14622978  0.62868590     0.88200
H350        H  0.43891252  0.29864634  0.66802388    -0.06000
O351        O  0.38186912  0.22771007  0.69845006    -0.75000
Mg352      Mg  0.39762416  0.18907673  0.63065627     1.58000
H353        H  0.39716193  0.17977325  0.70900586    -0.06000
C354        C  0.34655416  0.00431994  0.67065867     0.93200
O355        O  0.34217647  0.05962729  0.61931249    -0.82200
C356        C  0.36135798  0.08972793  0.60737594     0.93200
O357        O  0.24774600  0.08647561  0.72041761    -0.82200
Mg358      Mg  0.34354624  0.26220573  0.68492180     1.58200
O359        O  0.34703531  0.02342023  0.65651259    -0.80600
O360        O  0.32339562  0.31191179  0.64553898    -0.82200
C361        C  0.19704451  0.33831486  0.84903759     0.02800
C362        C  0.15507271  0.34143981  0.84902721     0.02800
C363        C  0.12724170  0.32943174  0.83421225    -0.17800
C364        C  0.14144843  0.31564776  0.81940599     0.02800
C365        C  0.18480305  0.31509916  0.81939273     0.02800
C366        C  0.21178427  0.32588088  0.83422556    -0.17800
H367        H  0.24473199  0.32471541  0.83422770     0.04800
H368        H  0.09439814  0.33072970  0.83421244     0.04800
C369        C  0.18195181  0.85882691  0.85038023     0.02800
C370        C  0.14390104  0.81108476  0.84922139     0.02800
C371        C  0.11789131  0.79525218  0.83408399    -0.17800
C372        C  0.12882441  0.82633400  0.82031615     0.02800
C373        C  0.16741920  0.87338185  0.82133139     0.02800
C374        C  0.19319467  0.88955240  0.83643693    -0.17800
H375        H  0.22355746  0.92547037  0.83707779     0.04800
H376        H  0.08767650  0.75928780  0.83326486     0.04800
O377        O  0.91876859  0.22162982  0.67266392    -0.87800
C378        C  0.80685472  0.18906200  0.70452030     0.88200
Mg379      Mg  0.92588883  0.25623964  0.64863787     1.58100
O380        O  0.80165248  0.09149138  0.68301623    -0.87600
O381        O  0.91456924  0.15760958  0.68356489    -0.74900
C382        C  0.71414803  0.13275317  0.61160383     0.93200
O383        O  0.86328495  0.27932414  0.67809766    -0.74700
O384        O  0.75010303  0.17467764  0.61240957    -0.82200
Mg385      Mg  0.90665755  0.25487963  0.69416387     1.58000
C386        C  0.67199023  0.99093657  0.66055660     0.93200
O387        O  0.95239374  0.23846481  0.71251513    -0.80500
H388        H  0.82983139  0.05065086  0.67724934    -0.05800
C389        C  0.72395357  0.14650707  0.66190535     0.88100
O390        O  0.89312840  0.18442217  0.63467245    -0.75000
O391        O  0.84272981  0.18802341  0.69975969    -0.87700
O392        O  0.69048731  0.00901825  0.67483632    -0.80600
C393        C  0.75246568  0.05768370  0.72437091     0.93300
C394        C  0.94450338  0.20761235  0.72396514     0.93100
Mg395      Mg  0.75272874  0.08581410  0.64132205     1.58000
O396        O  0.70679496  0.10082856  0.62253593    -0.80500
O397        O  0.79671785  0.06257804  0.65759512    -0.74700
O398        O  0.79566957  0.09177394  0.72402614    -0.80600
O399        O  0.97432641  0.32533013  0.68826043    -0.82300
O400        O  0.86125663  0.24787092  0.61189524    -0.80600
C401        C  0.80991526  0.06733197  0.67295694     0.87600
O402        O  0.81555512  0.15304805  0.63603884    -0.87700
O403        O  0.73911760  0.11836577  0.66277799    -0.87800
O404        O  0.74382583  0.18329828  0.65254400    -0.74900
Mg405      Mg  0.85294131  0.12777863  0.70297085     1.58000
O406        O  0.72495344  0.04718787  0.71167051    -0.82300
H407        H  0.96419858  0.19946794  0.66613233    -0.06000
O408        O  0.85701160  0.24954268  0.65273974    -0.87500
H409        H  0.83021143  0.29160250  0.65851058    -0.05800
H410        H  0.84617077  0.12180639  0.62347100    -0.06000
C411        C  0.84964758  0.27439533  0.66277996     0.87600
C412        C  0.93405411  0.19364195  0.67382190     0.88100
C413        C  0.85106363  0.15189246  0.63093868     0.88200
H414        H  0.69378896  0.14033308  0.66965222    -0.06000
O415        O  0.76495823  0.15620455  0.70067611    -0.75000
Mg416      Mg  0.80497293  0.21306121  0.63307001     1.58000
H417        H  0.81125331  0.21920328  0.71183858    -0.06000
C418        C  0.98874652  0.34865194  0.67448337     0.93200
O419        O  0.93320842  0.29281540  0.62336535    -0.82200
C420        C  0.90473503  0.28102745  0.61088119     0.93200
O421        O  0.90735932  0.16640154  0.72388405    -0.82200
Mg422      Mg  0.73237544  0.08406233  0.68671475     1.58200
O423        O  0.96848574  0.33115810  0.66038380    -0.80600
O424        O  0.68660311  0.01447304  0.64685571    -0.82200
O425        O  0.74474487  0.63452382  0.66123299    -0.87800
C426        C  0.85546992  0.71680920  0.62938809     0.88200
Mg427      Mg  0.73761069  0.65734972  0.68581395     1.58100
O428        O  0.86489331  0.62507016  0.64984487    -0.87600
O429        O  0.75070718  0.57561521  0.65053318    -0.74900
C430        C  0.95188271  0.75013557  0.72103669     0.93200
O431        O  0.80019653  0.74878383  0.65736662    -0.74700
O432        O  0.91649120  0.75699764  0.72062245    -0.82200
Mg433      Mg  0.75790958  0.68309071  0.64058786     1.58000
C434        C  0.99742902  0.65843405  0.67067735     0.93200
O435        O  0.71438082  0.62531761  0.62117618    -0.80500
H436        H  0.84040560  0.55590122  0.65434412    -0.05800
C437        C  0.93995474  0.75657433  0.67148302     0.88100
O438        O  0.77314705  0.61886922  0.69808159    -0.75000
O439        O  0.82077057  0.67937135  0.63442247    -0.87700
O440        O  0.97905307  0.65977482  0.65658045    -0.80600
C441        C  0.91080833  0.64286091  0.60797758     0.93300
C442        C  0.71954132  0.59903866  0.61041902     0.93100
Mg443      Mg  0.91390513  0.66551979  0.69108961     1.58000
O444        O  0.95760339  0.72432580  0.71023391    -0.80500
O445        O  0.87188893  0.59905407  0.67455171    -0.74700
O446        O  0.86640885  0.62845265  0.60963426    -0.80600
O447        O  0.69101806  0.68630887  0.64716331    -0.82300
O448        O  0.80359400  0.71538246  0.72226687    -0.80600
C449        C  0.85872262  0.59196928  0.65920730     0.87600
O450        O  0.85039940  0.66788624  0.69714868    -0.87700
O451        O  0.92607822  0.71359261  0.67022211    -0.87800
O452        O  0.91912206  0.77185840  0.68108910    -0.74900
Mg453      Mg  0.81101973  0.60843011  0.63096375     1.58000
O454        O  0.94062024  0.66356460  0.61987897    -0.82300
H455        H  0.69977747  0.56663620  0.66749791    -0.06000
O456        O  0.80552817  0.72181888  0.68211730    -0.87500
H457        H  0.83094266  0.79121335  0.67778229    -0.05800
H458        H  0.82171105  0.60413128  0.70838347    -0.06000
C459        C  0.81245749  0.75527088  0.67280144     0.87600
C460        C  0.72998886  0.59141046  0.65992835     0.88100
C461        C  0.81565191  0.62970827  0.70167348     0.88200
H462        H  0.96961879  0.78168450  0.66377487    -0.06000
O463        O  0.89796306  0.72741013  0.63283430    -0.75000
Mg464      Mg  0.85916548  0.73820445  0.70087293     1.58000
H465        H  0.84943550  0.74189293  0.62231837    -0.06000
C466        C  0.67461803  0.69075782  0.66126809     0.93200
O467        O  0.72931550  0.67985684  0.71207155    -0.82200
C468        C  0.75891963  0.69919568  0.72411768     0.93200
O469        O  0.75395696  0.59063499  0.61104588    -0.82200
Mg470      Mg  0.93307482  0.68933314  0.64574381     1.58200
O471        O  0.69250070  0.68858840  0.67539119    -0.80600
O472        O  0.98119295  0.66312444  0.68476817    -0.82200
C473        C  0.63232947  0.83530757  0.84547077     0.02800
C474        C  0.62366374  0.78822755  0.84451214     0.02800
C475        C  0.63342893  0.77190609  0.82944170    -0.17800
C476        C  0.65352806  0.80257861  0.81551909     0.02800
C477        C  0.66275722  0.85005185  0.81657708     0.02800
C478        C  0.65214856  0.86593307  0.83161387    -0.17800
H479        H  0.65775565  0.90179483  0.83234703     0.04800
H480        H  0.62799940  0.73608777  0.82888635     0.04800
C481        C  0.02578641  0.53631716  0.48658057     0.02800
C482        C  0.01779234  0.48935363  0.48596957     0.02800
C483        C  0.00268622  0.46113602  0.50062396    -0.17800
C484        C  0.99489660  0.47867495  0.51580791     0.02800
C485        C  0.00289446  0.52570972  0.51637412     0.02800
C486        C  0.01913442  0.55430079  0.50185492    -0.17800
H487        H  0.02409518  0.58996890  0.50219702     0.04800
H488        H  0.99751341  0.42539504  0.50025318     0.04800
C489        C  0.47171016  0.48466332  0.48522930     0.02800
C490        C  0.50860237  0.53274269  0.48609360     0.02800
C491        C  0.53681448  0.54950070  0.50067734    -0.17800
C492        C  0.52944031  0.51846698  0.51414703     0.02800
C493        C  0.49251729  0.47043545  0.51330993     0.02800
C494        C  0.46419837  0.45363900  0.49873630    -0.17800
H495        H  0.43494074  0.41710949  0.49822545     0.04800
H496        H  0.56605279  0.58603889  0.50120926     0.04800
C497        C  0.52501097  0.99908142  0.48507668     0.02800
C498        C  0.47473818  0.97786874  0.48456483     0.02800
C499        C  0.45045118  0.98116163  0.49878569    -0.17800
C500        C  0.47543620  0.00499152  0.51344585     0.02800
C501        C  0.52551614  0.02470973  0.51417920     0.02800
C502        C  0.54994386  0.02248157  0.49982282    -0.17800
H503        H  0.58821129  0.03662090  0.50044524     0.04800
H504        H  0.41217873  0.96697628  0.49818317     0.04800
C505        C  0.00105660  0.95542102  0.99981034     0.02800
C506        C  0.04347389  0.99964804  0.00178028     0.02800
C507        C  0.04208268  0.04249174  0.00126570     0.02800
C508        C  0.99812814  0.04080886  0.99831003     0.02800
C509        C  0.95572770  0.99658761  0.99600766     0.02800
C510        C  0.95731824  0.95381435  0.99666308     0.02800
C511        C  0.70791846  0.33019978  0.33192124     0.02800
C512        C  0.66296635  0.28834530  0.33317485     0.02800
C513        C  0.62126252  0.29149032  0.33500529     0.02800
C514        C  0.62463279  0.33663138  0.33569164     0.02800
C515        C  0.66955991  0.37869850  0.33423551     0.02800
C516        C  0.71109773  0.37523125  0.33217893     0.02800
C517        C  0.29116996  0.67030591  0.66482263     0.02800
C518        C  0.33613102  0.71197127  0.66292421     0.02800
C519        C  0.37756735  0.70831866  0.66097822     0.02800
C520        C  0.37388747  0.66299057  0.66084091     0.02800
C521        C  0.32868681  0.62105624  0.66244275     0.02800
C522        C  0.28735053  0.62490985  0.66467604     0.02800
C523        C  0.10472079  0.66222621  0.66088832     0.30300
C524        C  0.14283705  0.66978637  0.65038538    -0.36100
C525        C  0.18232010  0.67188436  0.65848959     0.16300
C526        C  0.18401429  0.66621459  0.67573976     0.22100
C527        C  0.14600620  0.65909134  0.68628802    -0.34200
C528        C  0.10659833  0.65745586  0.67817900     0.16200
O529        O  0.06511041  0.66077396  0.65599020    -0.26200
C530        C  0.04115572  0.65513638  0.67030101     0.06000
C531        C  0.06524562  0.65281302  0.68454350    -0.31100
O532        O  0.22339338  0.66675243  0.68046521    -0.22900
C533        C  0.24735474  0.67363602  0.66606886    -0.02900
C534        C  0.22369588  0.67728380  0.65201622    -0.17300
H535        H  0.14182056  0.67388621  0.63682678     0.20700
H536        H  0.14702231  0.65495759  0.69984374     0.19000
H537        H  0.05470203  0.65005443  0.69768207     0.19000
H538        H  0.23440899  0.68081773  0.63887680     0.14800
C539        C  0.56693697  0.68792221  0.65281032     0.30300
C540        C  0.52830915  0.68138294  0.64276807    -0.36100
C541        C  0.48699947  0.67290371  0.65151420     0.16300
C542        C  0.48402518  0.67134620  0.66894329     0.22100
C543        C  0.52283466  0.67859345  0.67898202    -0.34200
C544        C  0.56405344  0.68688846  0.67024023     0.16200
O545        O  0.60751249  0.69236376  0.64729974    -0.26200
C546        C  0.63108649  0.69453221  0.66138408     0.06000
C547        C  0.60587900  0.69176866  0.67603453    -0.31100
O548        O  0.44254380  0.66429926  0.67448904    -0.22900
C549        C  0.41841271  0.66078907  0.66043885    -0.02900
C550        C  0.44437462  0.66619384  0.64575834    -0.17300
H551        H  0.53003844  0.68199218  0.62908943     0.20700
H552        H  0.52085465  0.67735189  0.69265807     0.19000
H553        H  0.61550497  0.69005822  0.68902436     0.19000
H554        H  0.43418440  0.66759413  0.63282601     0.14800
C555        C  0.67029639  0.74208137  0.78171530     0.30300
C556        C  0.65736886  0.70674931  0.76926913    -0.36100
C557        C  0.69487578  0.70998944  0.75931025     0.16300
C558        C  0.74190648  0.74494692  0.76170982     0.22100
C559        C  0.75475193  0.78024000  0.77408750    -0.34200
C560        C  0.71721113  0.77771799  0.78372307     0.16200
O561        O  0.64118825  0.74631089  0.79237913    -0.26200
C562        C  0.66981630  0.78582071  0.80099594     0.06000
C563        C  0.71742193  0.80681259  0.79614352    -0.31100
O564        O  0.77080580  0.74334813  0.75032861    -0.22900
C565        C  0.74202364  0.70727948  0.74034175    -0.02900
C566        C  0.69433271  0.68500381  0.74534630    -0.17300
H567        H  0.62056155  0.67944676  0.76720331     0.20700
H568        H  0.79132444  0.80862482  0.77571798     0.19000
H569        H  0.74785580  0.83817601  0.80138738     0.19000
H570        H  0.66354244  0.65662026  0.73900802     0.14800
C571        C  0.64174597  0.58254853  0.57727059     0.30300
C572        C  0.61365444  0.59433437  0.56711116    -0.36100
C573        C  0.59718465  0.56884309  0.55197073     0.16300
C574        C  0.60704186  0.53361117  0.54732742     0.22100
C575        C  0.63561297  0.52221434  0.55738741    -0.34200
C576        C  0.65265208  0.54819670  0.57242141     0.16200
O577        O  0.66200795  0.60297715  0.59166146    -0.26200
C578        C  0.68654994  0.58180144  0.59605212     0.06000
C579        C  0.68218385  0.54739997  0.58454441    -0.31100
O580        O  0.58585796  0.51250352  0.53313197    -0.22900
C581        C  0.56280179  0.53500199  0.52849784    -0.02900
C582        C  0.56871881  0.57064005  0.53964971    -0.17300
H583        H  0.60538384  0.62158656  0.57073923     0.20700
H584        H  0.64388451  0.49496584  0.55375324     0.19000
H585        H  0.69942690  0.52614717  0.58480827     0.19000
H586        H  0.55237708  0.59269930  0.53918085     0.14800
C587        C  0.99247953  0.58710483  0.55127025     0.30300
C588        C  0.00798439  0.62153756  0.56416731    -0.36100
C589        C  0.97190685  0.62193639  0.57395954     0.16300
C590        C  0.92393701  0.59097856  0.57110255     0.22100
C591        C  0.90849031  0.55632381  0.55834982    -0.34200
C592        C  0.94448461  0.55545686  0.54875423     0.16200
O593        O  0.01984079  0.58065586  0.54042962    -0.26200
C594        C  0.98885733  0.54379652  0.53112990     0.06000
C595        C  0.94157342  0.52665990  0.53574943    -0.31100
O596        O  0.89633722  0.59634006  0.58209091    -0.22900
C597        C  0.92687244  0.63100467  0.59223836    -0.02900
C598        C  0.97445754  0.64829586  0.58779605    -0.17300
H599        H  0.04550515  0.64595802  0.56650946     0.20700
H600        H  0.87099368  0.53128878  0.55622303     0.19000
H601        H  0.90973132  0.49802052  0.52999799     0.19000
H602        H  0.00620421  0.67480896  0.59427355     0.14800
C603        C  0.56636910  0.88404315  0.65167352     0.30300
C604        C  0.52584830  0.85307058  0.64215164    -0.36100
C605        C  0.48950236  0.81396828  0.65091292     0.16300
C606        C  0.49288966  0.80578831  0.66785802     0.22100
C607        C  0.53357677  0.83641552  0.67731661    -0.34200
C608        C  0.56978064  0.87561036  0.66858804     0.16200
O609        O  0.60302362  0.92457638  0.64637782    -0.26200
C610        C  0.63032476  0.94230972  0.66007064     0.06000
C611        C  0.61143857  0.91319842  0.67423765    -0.31100
O612        O  0.45415130  0.76801145  0.67365163    -0.22900
C613        C  0.42544785  0.75190959  0.66027390    -0.02900
C614        C  0.44569648  0.77873212  0.64572515    -0.17300
H615        H  0.52233617  0.85972199  0.62895727     0.20700
H616        H  0.53629132  0.83074962  0.69066929     0.19000
H617        H  0.62513656  0.92003416  0.68704147     0.19000
H618        H  0.43025599  0.77308611  0.63320986     0.14800
C619        C  0.09051184  0.45754714  0.66434954     0.30300
C620        C  0.12269674  0.49357533  0.65343647    -0.36100
C621        C  0.16734888  0.52599440  0.66032578     0.16300
C622        C  0.17957377  0.52328977  0.67684759     0.22100
C623        C  0.14721285  0.48742744  0.68781263    -0.34200
C624        C  0.10244622  0.45496869  0.68091822     0.16200
O625        O  0.04808048  0.42183562  0.66020032    -0.26200
C626        C  0.03220620  0.39612049  0.67431670     0.06000
C627        C  0.06451939  0.41517714  0.68766326    -0.31100
O628        O  0.22349809  0.55704855  0.68055844    -0.22900
C629        C  0.23954300  0.58152330  0.66620334    -0.02900
C630        C  0.20615736  0.56391188  0.65320437    -0.17300
H631        H  0.11386081  0.49562366  0.64037369     0.20700
H632        H  0.15654417  0.48460962  0.70073901     0.19000
H633        H  0.06168673  0.40031520  0.70016242     0.19000
H634        H  0.20996465  0.57742688  0.64043408     0.14800
C635        C  0.73436359  0.99966681  0.76344476     0.30300
C636        C  0.74518590  0.99312784  0.78007980    -0.36100
C637        C  0.71657968  0.94741123  0.78695664     0.16300
C638        C  0.68024878  0.91043637  0.77802150     0.22100
C639        C  0.66902212  0.91714013  0.76148277    -0.34200
C640        C  0.69710536  0.96303939  0.75471322     0.16200
O641        O  0.75789730  0.03873142  0.75422733    -0.26200
C642        C  0.73479724  0.02719594  0.73950927     0.06000
C643        C  0.69648943  0.98065321  0.73915862    -0.31100
O644        O  0.65785518  0.87076771  0.78695466    -0.22900
C645        C  0.67983927  0.88260637  0.80186912    -0.02900
C646        C  0.71657654  0.92985736  0.80260604    -0.17300
H647        H  0.77401903  0.02161239  0.78714156     0.20700
H648        H  0.64036779  0.88857059  0.75438669     0.19000
H649        H  0.67339097  0.96168751  0.72860929     0.19000
H650        H  0.73920690  0.94867725  0.81326549     0.14800
C651        C  0.60673832  0.08760567  0.54701179     0.30300
C652        C  0.64859005  0.12428203  0.55438246    -0.36100
C653        C  0.65581763  0.11830672  0.57152197     0.16300
C654        C  0.62447269  0.07860380  0.58073827     0.22100
C655        C  0.58229406  0.04222122  0.57343314    -0.34200
C656        C  0.57470943  0.04857455  0.55636702     0.16200
O657        O  0.59376328  0.08495351  0.53101382    -0.26200
C658        C  0.55234159  0.04411396  0.53018169     0.06000
C659        C  0.53885915  0.01999047  0.54558742    -0.31100
O660        O  0.63992781  0.07891003  0.59623523    -0.22900
C661        C  0.68137991  0.11975701  0.59705838    -0.02900
C662        C  0.69290998  0.14576925  0.58205759    -0.17300
H663        H  0.67414959  0.15497449  0.54718294     0.20700
H664        H  0.55752132  0.01075474  0.58047495     0.19000
H665        H  0.50795583  0.98553812  0.54827246     0.19000
H666        H  0.72512853  0.17890597  0.57908728     0.14800
C667        C  0.94579691  0.38718136  0.54620989     0.30300
C668        C  0.91467465  0.34139183  0.55262321    -0.36100
C669        C  0.92241971  0.33328238  0.56947337     0.16300
C670        C  0.95869645  0.36764264  0.57924580     0.22100
C671        C  0.98947763  0.41349529  0.57288357    -0.34200
C672        C  0.98126043  0.42182052  0.55615272     0.16200
O673        O  0.94540314  0.40250923  0.53077184    -0.26200
C674        C  0.98048396  0.44781347  0.53096295     0.06000
C675        C  0.00398849  0.46174828  0.54642626    -0.31100
O676        O  0.95865489  0.35292199  0.59480219    -0.22900
C677        C  0.92165105  0.30864088  0.59508968    -0.02900
C678        C  0.89770383  0.29452141  0.57967700    -0.17300
H679        H  0.88613476  0.31418336  0.54507000     0.20700
H680        H  0.01745485  0.44098692  0.58053173     0.19000
H681        H  0.03422675  0.49596036  0.54982268     0.19000
H682        H  0.86576546  0.26122874  0.57664395     0.14800
C683        C  0.05887070  0.81547176  0.78509133     0.30300
C684        C  0.03306969  0.82838958  0.77417398    -0.36100
C685        C  0.01790662  0.80285496  0.75897644     0.16300
C686        C  0.02826960  0.76771546  0.75472416     0.22100
C687        C  0.05384109  0.75466257  0.76568170    -0.34200
C688        C  0.06812601  0.77947503  0.78102026     0.16200
O689        O  0.07735467  0.83530484  0.79975291    -0.26200
C690        C  0.09793920  0.81113525  0.80526468     0.06000
C691        C  0.09318799  0.77577746  0.79419902    -0.31100
O692        O  0.00881547  0.74691386  0.74028570    -0.22900
C693        C  0.98522920  0.76855085  0.73528003    -0.02900
C694        C  0.98964476  0.80381349  0.74638485    -0.17300
H695        H  0.02491057  0.85598104  0.77740123     0.20700
H696        H  0.06129479  0.72651481  0.76258784     0.19000
H697        H  0.10818405  0.75263405  0.79531802     0.19000
H698        H  0.97255985  0.82517572  0.74570384     0.14800
C699        C  0.00255544  0.22706534  0.76310067     0.30300
C700        C  0.00545286  0.22237315  0.78066907    -0.36100
C701        C  0.04871349  0.25542974  0.78834026     0.16300
C702        C  0.08690337  0.29007151  0.77930357     0.22100
C703        C  0.08395991  0.29489425  0.76175600    -0.34200
C704        C  0.04037476  0.26244111  0.75413616     0.16200
O705        O  0.96465832  0.20163723  0.75351948    -0.26200
C706        C  0.97818547  0.22122967  0.73823488     0.06000
C707        C  0.02495074  0.25925447  0.73788706    -0.31100
O708        O  0.12423784  0.31653470  0.78897638    -0.22900
C709        C  0.10958436  0.29908841  0.80446301    -0.02900
C710        C  0.06281415  0.26116779  0.80483791    -0.17300
H711        H  0.97573765  0.19538526  0.78789967     0.20700
H712        H  0.11336864  0.32247433  0.75458485     0.19000
H713        H  0.04414660  0.28220992  0.72732529     0.19000
H714        H  0.04277878  0.24002680  0.81563502     0.14800
C715        C  0.30604866  0.50350242  0.66758490     0.30300
C716        C  0.29124586  0.46025324  0.67609132    -0.36100
C717        C  0.29817584  0.42635602  0.66744855     0.16300
C718        C  0.31762994  0.43415919  0.65141627     0.22100
C719        C  0.33219445  0.47732701  0.64287214    -0.34200
C720        C  0.32599865  0.51151430  0.65163263     0.16200
O721        O  0.30444693  0.54070231  0.67354713    -0.26200
C722        C  0.32415004  0.57321137  0.66134240     0.06000
C723        C  0.33805347  0.55694526  0.64737451    -0.31100
O724        O  0.32339299  0.39875547  0.64610614    -0.22900
C725        C  0.30767097  0.36790132  0.65892423    -0.02900
C726        C  0.29146160  0.38321104  0.67253736    -0.17300
H727        H  0.27657585  0.45399126  0.68875844     0.20700
H728        H  0.34857048  0.48432597  0.63046981     0.19000
H729        H  0.35440255  0.57583123  0.63576201     0.19000
H730        H  0.27873145  0.36607972  0.68469927     0.14800
C731        C  0.33879184  0.81815886  0.67414570     0.30300
C732        C  0.33434068  0.85018161  0.68489208    -0.36100
C733        C  0.34375361  0.89346482  0.67755473     0.16300
C734        C  0.35620550  0.90426020  0.66075642     0.22100
C735        C  0.36079927  0.87231395  0.65002846    -0.34200
C736        C  0.35172696  0.82921652  0.65739262     0.16200
O737        O  0.33133030  0.77555360  0.67829938    -0.26200
C738        C  0.33997784  0.75935145  0.66405216     0.06000
C739        C  0.35248267  0.79103216  0.65059996    -0.31100
O740        O  0.36075571  0.94553161  0.65631086    -0.22900
C741        C  0.35159414  0.96169929  0.67047344    -0.02900
C742        C  0.34093304  0.93083628  0.68412760    -0.17300
H743        H  0.32382051  0.84174288  0.69800990     0.20700
H744        H  0.37018479  0.88025366  0.63680533     0.19000
H745        H  0.36048910  0.78634526  0.63769076     0.19000
H746        H  0.33022326  0.93429822  0.69678364     0.14800
C747        C  0.20154318  0.92285390  0.78076305     0.30300
C748        C  0.21371377  0.92382198  0.76366855    -0.36100
C749        C  0.21951632  0.96305435  0.75426657     0.16300
C750        C  0.21326075  0.99864411  0.76117227     0.22100
C751        C  0.20134493  0.99780515  0.77832379    -0.34200
C752        C  0.19616518  0.95884932  0.78779781     0.16200
O753        O  0.19348550  0.88903474  0.79172298    -0.26200
C754        C  0.18348436  0.90377612  0.80605297     0.06000
C755        C  0.18479446  0.94713063  0.80442417    -0.31100
O756        O  0.22189007  0.03269441  0.75018927    -0.22900
C757        C  0.23403796  0.01888062  0.73607955    -0.02900
C758        C  0.23320428  0.97576962  0.73788740    -0.17300
H759        H  0.21859408  0.89603641  0.75811573     0.20700
H760        H  0.19694863  0.02583155  0.78392430     0.19000
H761        H  0.17662808  0.96607104  0.81390515     0.19000
H762        H  0.24303346  0.95747122  0.72867856     0.14800
C763        C  0.25865083  0.25098644  0.76267511     0.30300
C764        C  0.23860598  0.23575217  0.77881529    -0.36100
C765        C  0.22629845  0.26592685  0.78739968     0.16300
C766        C  0.23286423  0.30796782  0.78051841     0.22100
C767        C  0.25323211  0.32335396  0.76445118    -0.34200
C768        C  0.26599448  0.29345190  0.75594487     0.16200
O769        O  0.27065175  0.22732188  0.75208607    -0.26200
C770        C  0.28646163  0.25530437  0.73849071     0.06000
C771        C  0.28457231  0.29701920  0.74021186    -0.31100
O772        O  0.21839713  0.33043027  0.79067795    -0.22900
C773        C  0.20244394  0.30243092  0.80423042    -0.02900
C774        C  0.20671360  0.26197292  0.80298292    -0.17300
H775        H  0.23256332  0.20248591  0.78422046     0.20700
H776        H  0.25844747  0.35618125  0.75891908     0.19000
H777        H  0.29314662  0.32461510  0.73087810     0.19000
H778        H  0.19689626  0.23395319  0.81224275     0.14800
C779        C  0.43394462  0.05455729  0.54363521     0.30300
C780        C  0.43369759  0.09185345  0.55245116    -0.36100
C781        C  0.40481682  0.07887736  0.56689185     0.16300
C782        C  0.37820955  0.03240186  0.57248392     0.22100
C783        C  0.37762738  0.99474406  0.56340224    -0.34200
C784        C  0.40632369  0.00772530  0.54877943     0.16200
O785        O  0.46096502  0.05936155  0.53048798    -0.26200
C786        C  0.45016958  0.01503774  0.52691660     0.06000
C787        C  0.41609327  0.98119927  0.53776607    -0.31100
O788        O  0.35746173  0.02930656  0.58723832    -0.22900
C789        C  0.37059402  0.07438473  0.59093770    -0.02900
C790        C  0.39975038  0.10653220  0.57863882    -0.17300
H791        H  0.45579536  0.12868965  0.54862764     0.20700
H792        H  0.35753883  0.95817844  0.56772903     0.19000
H793        H  0.40243382  0.94313661  0.53797489     0.19000
H794        H  0.41722640  0.14507069  0.57886667     0.14800
C795        C  0.45322994  0.33893558  0.57114868     0.30300
C796        C  0.46239622  0.34112957  0.55369432    -0.36100
C797        C  0.46896508  0.38218359  0.54532531     0.16300
C798        C  0.46761044  0.41888350  0.55367240     0.22100
C799        C  0.45847089  0.41671992  0.57107511    -0.34200
C800        C  0.45105050  0.37537090  0.57936309     0.16200
O801        O  0.44251786  0.30244514  0.58120603    -0.26200
C802        C  0.43305217  0.31557176  0.59600194     0.06000
C803        C  0.43788203  0.36067190  0.59560215    -0.31100
O804        O  0.47495089  0.45400461  0.54349025    -0.22900
C805        C  0.48056037  0.43954292  0.52836111    -0.02900
C806        C  0.47697808  0.39496444  0.52866754    -0.17300
H807        H  0.46308737  0.31230751  0.54703995     0.20700
H808        H  0.45625673  0.44488003  0.57761881     0.19000
H809        H  0.43038313  0.37886429  0.60557947     0.19000
H810        H  0.48085496  0.37552807  0.51824253     0.14800
C811        C  0.98629479  0.21693816  0.00476477     0.30300
C812        C  0.99393340  0.18577800  0.01484011    -0.36100
C813        C  0.99371571  0.14770019  0.00638913     0.16300
C814        C  0.98583450  0.14029563  0.98921045     0.22100
C815        C  0.97842286  0.17164065  0.97909083    -0.34200
C816        C  0.97918781  0.21012983  0.98753859     0.16200
O817        O  0.98726012  0.25600326  0.00998951    -0.26200
C818        C  0.98084936  0.27474651  0.99595763     0.06000
C819        C  0.97565293  0.24773786  0.98156416    -0.31100
O820        O  0.98669000  0.10206774  0.98400691    -0.22900
C821        C  0.99588756  0.08531850  0.99801160    -0.02900
C822        C  0.00061190  0.11219623  0.01231373    -0.17300
H823        H  0.00034817  0.19128479  0.02830939     0.20700
H824        H  0.97302045  0.16668506  0.96556476     0.19000
H825        H  0.97169971  0.25563274  0.96855615     0.19000
H826        H  0.00743698  0.10594629  0.02519462     0.14800
C827        C  0.01913990  0.78400929  0.01128040     0.30300
C828        C  0.01451382  0.81841279  0.02057173    -0.36100
C829        C  0.01072232  0.85294438  0.01104654     0.16300
C830        C  0.01155287  0.85370747  0.99358018     0.22100
C831        C  0.01680758  0.81973910  0.98430997    -0.34200
C832        C  0.02058813  0.78525194  0.99382670     0.16200
O833        O  0.01990158  0.74655453  0.01751033    -0.26200
C834        C  0.02229304  0.72377670  0.00385269     0.06000
C835        C  0.02310098  0.74646796  0.98879728    -0.31100
O836        O  0.00697383  0.88886984  0.98724790    -0.22900
C837        C  0.00307082  0.91081669  0.00084490    -0.02900
C838        C  0.00534617  0.89023162  0.01598736    -0.17300
H839        H  0.01297267  0.81772976  0.03425330     0.20700
H840        H  0.01714102  0.81972461  0.97061653     0.19000
H841        H  0.02276149  0.73456668  0.97597465     0.19000
H842        H  0.00391130  0.90162238  0.02873390     0.14800
C843        C  0.06596254  0.69234355  0.91101621     0.30300
C844        C  0.08154640  0.73882715  0.90530801    -0.36100
C845        C  0.09939969  0.74919776  0.88875706     0.16300
C846        C  0.10090732  0.71588142  0.87831680     0.22100
C847        C  0.08573556  0.66932778  0.88409822    -0.34200
C848        C  0.06864311  0.65917205  0.90083889     0.16200
O849        O  0.05016587  0.67602090  0.92634053    -0.26200
C850        C  0.04292447  0.63184872  0.92616223     0.06000
C851        C  0.05392171  0.61936700  0.91060969    -0.31100
O852        O  0.11751509  0.73315693  0.86308342    -0.22900
C853        C  0.12772929  0.77840379  0.86396652    -0.02900
C854        C  0.11714050  0.79023146  0.87965048    -0.17300
H855        H  0.08045899  0.76532749  0.91332321     0.20700
H856        H  0.08756648  0.64306731  0.87617341     0.19000
H857        H  0.05293320  0.58652566  0.90722960     0.19000
H858        H  0.12048168  0.82377367  0.88355318     0.14800
C859        C  0.11433230  0.43569908  0.90594586     0.30300
C860        C  0.12236002  0.44065242  0.88840278    -0.36100
C861        C  0.12869493  0.40543035  0.88049209     0.16300
C862        C  0.12812111  0.36836207  0.88928131     0.22100
C863        C  0.11977447  0.36320805  0.90681051    -0.34200
C864        C  0.11268148  0.39802778  0.91467966     0.16200
O865        O  0.10495982  0.46309439  0.91568412    -0.26200
C866        C  0.09684100  0.44259363  0.93085764     0.06000
C867        C  0.10117153  0.40194443  0.93097431    -0.31100
O868        O  0.13622308  0.34029101  0.87942264    -0.22900
C869        C  0.14139069  0.35921504  0.86406626    -0.02900
C870        C  0.13678690  0.39964554  0.86396143    -0.17300
H871        H  0.12288033  0.46955691  0.88136657     0.20700
H872        H  0.11839773  0.33381359  0.91379246     0.19000
H873        H  0.09471390  0.37770194  0.94137680     0.19000
H874        H  0.14057278  0.42234538  0.85333279     0.14800
C875        C  0.13887886  0.15949098  0.99797468     0.30300
C876        C  0.16735599  0.20382082  0.99020598    -0.36100
C877        C  0.20749824  0.23685765  0.99933164     0.16300
C878        C  0.21879694  0.22729510  0.01513667     0.22100
C879        C  0.19016685  0.18277666  0.02295302    -0.34200
C880        C  0.15018810  0.14939484  0.01369459     0.16200
O881        O  0.10008325  0.12337510  0.99152116    -0.26200
C882        C  0.08644305  0.08930705  0.00313017     0.06000
C883        C  0.11623830  0.10340322  0.01723453    -0.31100
O884        O  0.25957542  0.26267608  0.02090866    -0.22900
C885        C  0.27452265  0.29511824  0.00858537    -0.02900
C886        C  0.24341358  0.28090826  0.99489441    -0.17300
H887        H  0.15926942  0.21167793  0.97773764     0.20700
H888        H  0.19905014  0.17437832  0.03519453     0.19000
H889        H  0.11282948  0.08297016  0.02851034     0.19000
H890        H  0.24787240  0.29938681  0.98302834     0.14800
C891        C  0.78098463  0.76767234  0.98556038     0.30300
C892        C  0.81330691  0.80807732  0.97626057    -0.36100
C893        C  0.85148863  0.84407054  0.98545495     0.16300
C894        C  0.85765726  0.84022427  0.00255250     0.22100
C895        C  0.82566561  0.79981226  0.01178594    -0.34200
C896        C  0.78736617  0.76415482  0.00265669     0.16200
O897        O  0.74095254  0.73120197  0.97986557    -0.26200
C898        C  0.72163294  0.70414553  0.99351953     0.06000
C899        C  0.74907543  0.72286520  0.00802115    -0.31100
O900        O  0.89519215  0.87823940  0.00871709    -0.22900
C901        C  0.91309577  0.90708139  0.99545957    -0.02900
C902        C  0.88768147  0.88772301  0.98059946    -0.17300
H903        H  0.80833985  0.81174000  0.96291864     0.20700
H904        H  0.82974397  0.79687148  0.02524650     0.19000
H905        H  0.74080090  0.70917943  0.02081992     0.19000
H906        H  0.89507075  0.90341469  0.96809046     0.14800
C907        C  0.54444248  0.65924170  0.90373000     0.30300
C908        C  0.53633175  0.65877695  0.88625662    -0.36100
C909        C  0.56816863  0.70020334  0.87737773     0.16300
C910        C  0.60484694  0.73953037  0.88525046     0.22100
C911        C  0.61310819  0.73992729  0.90266051    -0.34200
C912        C  0.58178851  0.69831959  0.91147182     0.16200
O913        O  0.52040609  0.62369337  0.91435286    -0.26200
C914        C  0.54288339  0.64014404  0.92903450     0.06000
C915        C  0.58141754  0.68635063  0.92799219    -0.31100
O916        O  0.62954386  0.77483458  0.87468674    -0.22900
C917        C  0.60880086  0.75794419  0.85979431    -0.02900
C918        C  0.57059108  0.71148074  0.86063219    -0.17300
H919        H  0.50762315  0.62808124  0.88000489     0.20700
H920        H  0.64220322  0.77041867  0.90886722     0.19000
H921        H  0.60637897  0.70737527  0.93783955     0.19000
H922        H  0.54715296  0.68998405  0.85051934     0.14800
C923        C  0.30995136  0.36402570  0.91103128     0.30300
C924        C  0.26706522  0.32987594  0.90348058    -0.36100
C925        C  0.25647264  0.34250469  0.88777978     0.16300
C926        C  0.28624397  0.38555184  0.87995483     0.22100
C927        C  0.32924360  0.41950147  0.88742544    -0.34200
C928        C  0.33964633  0.40699602  0.90315887     0.16200
O929        O  0.32511890  0.36134349  0.92626246    -0.26200
C930        C  0.36510919  0.40307965  0.92810362     0.06000
C931        C  0.37595138  0.43275115  0.91408736    -0.31100
O932        O  0.26908910  0.39016232  0.86541864    -0.22900
C933        C  0.22759320  0.34979074  0.86404387    -0.02900
C934        C  0.21792386  0.31863420  0.87748417    -0.17300
H935        H  0.24304527  0.29637963  0.90961733     0.20700
H936        H  0.35244220  0.45369748  0.88156041     0.19000
H937        H  0.40481767  0.46914906  0.91260472     0.19000
H938        H  0.18713953  0.28350551  0.87929060     0.14800
C939        C  0.78034700  0.00901393  0.98522533     0.30300
C940        C  0.81026820  0.99704752  0.97611666    -0.36100
C941        C  0.84773861  0.99756854  0.98530594     0.16300
C942        C  0.85532265  0.00939414  0.00223548     0.22100
C943        C  0.82566561  0.02153750  0.01128499    -0.34200
C944        C  0.78822592  0.02083482  0.00214533     0.16200
O945        O  0.74151008  0.00810544  0.97949724    -0.26200
C946        C  0.72446191  0.01965277  0.99293332     0.06000
C947        C  0.75230205  0.02814853  0.00733312    -0.31100
O948        O  0.89288326  0.00869371  0.00828921    -0.22900
C949        C  0.90948890  0.99574534  0.99515376    -0.02900
C950        C  0.88300065  0.98854710  0.98046139    -0.17300
H951        H  0.80436784  0.98739317  0.96287143     0.20700
H952        H  0.83119321  0.03055782  0.02458821     0.19000
H953        H  0.74553879  0.03595227  0.02001412     0.19000
H954        H  0.88989862  0.97987627  0.96794421     0.14800
C955        C  0.14264866  0.98776580  0.01168576     0.30300
C956        C  0.17278871  0.97893145  0.02194968    -0.36100
C957        C  0.20945231  0.97590844  0.01356154     0.16300
C958        C  0.21553575  0.98056835  0.99624263     0.22100
C959        C  0.18518126  0.98897802  0.98597618    -0.34200
C960        C  0.14912764  0.99282829  0.99438725     0.16200
O961        O  0.10597842  0.99175700  0.01681196    -0.26200
C962        C  0.08943516  0.00031503  0.00262684     0.06000
C963        C  0.11469385  0.00116903  0.98829488    -0.31100
O964        O  0.25389496  0.97972289  0.99116067    -0.22900
C965        C  0.27288970  0.97463082  0.00538311    -0.02900
C966        C  0.24658332  0.97177291  0.01973194    -0.17300
H967        H  0.16853259  0.97559437  0.03555048     0.20700
H968        H  0.19011392  0.99345014  0.97241469     0.19000
H969        H  0.10734188  0.00530607  0.97524029     0.19000
H970        H  0.25514310  0.96984410  0.03283646     0.14800
C971        C  0.31180848  0.94578575  0.90901728     0.30300
C972        C  0.27762622  0.95122813  0.89984704    -0.36100
C973        C  0.25544237  0.91910223  0.88643994     0.16300
C974        C  0.26568749  0.88366875  0.88252033     0.22100
C975        C  0.30033255  0.87878379  0.89147783    -0.34200
C976        C  0.32299974  0.91130424  0.90465979     0.16200
O977        O  0.33499616  0.96990562  0.92263805    -0.26200
C978        C  0.36195857  0.95109048  0.92681428     0.06000
C979        C  0.35615532  0.91478521  0.91597895    -0.31100
O980        O  0.24028886  0.85705848  0.86971021    -0.22900
C981        C  0.21374640  0.87594277  0.86521917    -0.02900
C982        C  0.22178073  0.91480863  0.87509019    -0.17300
H983        H  0.26857458  0.97819956  0.90305325     0.20700
H984        H  0.30877816  0.85127021  0.88845945     0.19000
H985        H  0.37187162  0.89222537  0.91695205     0.19000
H986        H  0.20531708  0.93665368  0.87397931     0.14800
C987        C  0.57397749  0.84895714  0.88046307     0.30300
C988        C  0.53500387  0.83782797  0.89110938    -0.36100
C989        C  0.54583436  0.86259251  0.90649752     0.16300
C990        C  0.59195199  0.89549503  0.91116249     0.22100
C991        C  0.63090278  0.90678575  0.90047504    -0.34200
C992        C  0.61998144  0.88265612  0.88496149     0.16200
O993        O  0.57212186  0.82928553  0.86570509    -0.26200
C994        C  0.61736904  0.85128052  0.86053889     0.06000
C995        C  0.64880567  0.88498934  0.87195764    -0.31100
O996        O  0.59375955  0.91594120  0.92575050    -0.22900
C997        C  0.54823717  0.89623791  0.93048091    -0.02900
C998        C  0.51674954  0.86266200  0.91899154    -0.17300
H999        H  0.49874018  0.81201001  0.88756114     0.20700
H1000       H  0.66709816  0.93311449  0.90390829     0.19000
H1001       H  0.68734903  0.90617230  0.87115457     0.19000
H1002       H  0.47809158  0.84305660  0.91937677     0.14800
C1003       C  0.86877901  0.62371342  0.11235461     0.30300
C1004       C  0.87862144  0.63037615  0.09494559    -0.36100
C1005       C  0.88863650  0.59755734  0.08705219     0.16300
C1006       C  0.88846671  0.56040869  0.09564909     0.22100
C1007       C  0.87929390  0.55415913  0.11311014    -0.34200
C1008       C  0.86984384  0.58730632  0.12103658     0.16200
O1009       O  0.85796905  0.64982476  0.12220634    -0.26200
C1010       C  0.85270817  0.63027643  0.13743970     0.06000
C1011       C  0.85990681  0.59142865  0.13749169    -0.31100
O1012       O  0.89910778  0.53416779  0.08578590    -0.22900
C1013       C  0.90648338  0.55489945  0.07066990    -0.02900
C1014       C  0.90072683  0.59469100  0.07074549    -0.17300
H1015       H  0.87861494  0.65921842  0.08804862     0.20700
H1016       H  0.87977249  0.52561758  0.12004945     0.19000
H1017       H  0.85714507  0.56896139  0.14806696     0.19000
H1018       H  0.90574661  0.61858029  0.06037323     0.14800
C1019       C  0.73935953  0.64923478  0.11511208     0.30300
C1020       C  0.73249702  0.66677228  0.09976565    -0.36100
C1021       C  0.68963168  0.63686701  0.09125452     0.16300
C1022       C  0.65607715  0.59267748  0.09740671     0.22100
C1023       C  0.66267362  0.57539994  0.11282211    -0.34200
C1024       C  0.70538294  0.60529657  0.12133083     0.16200
O1025       O  0.77693747  0.67094601  0.12508393    -0.26200
C1026       C  0.76675133  0.64039984  0.13778045     0.06000
C1027       C  0.72268670  0.59909896  0.13619814    -0.31100
O1028       O  0.62067420  0.56887485  0.08675676    -0.22900
C1029       C  0.63128111  0.59822100  0.07364141    -0.02900
C1030       C  0.67364227  0.64131269  0.07578273    -0.17300
H1031       H  0.75909727  0.70091427  0.09467052     0.20700
H1032       H  0.63681710  0.54056221  0.11763986     0.19000
H1033       H  0.70585743  0.56919590  0.14483437     0.19000
H1034       H  0.69178042  0.67000940  0.06674072     0.14800
C1035       C  0.65817443  0.18067115  0.32312410     0.30300
C1036       C  0.66019840  0.14676214  0.31267592    -0.36100
C1037       C  0.65287474  0.10505574  0.32071677     0.16300
C1038       C  0.64449838  0.09741074  0.33787553     0.22100
C1039       C  0.64190263  0.13105379  0.34828378    -0.34200
C1040       C  0.64897523  0.17261742  0.34023587     0.16200
O1041       O  0.66485821  0.22255092  0.31835281    -0.26200
C1042       C  0.65949469  0.24122995  0.33258052     0.06000
C1043       C  0.64956631  0.21188527  0.34659231    -0.31100
O1044       O  0.64226675  0.05761923  0.34294292    -0.22900
C1045       C  0.64888710  0.03930194  0.32883655    -0.02900
C1046       C  0.65531659  0.06710639  0.31458277    -0.17300
H1047       H  0.66780111  0.15284187  0.29927724     0.20700
H1048       H  0.63581128  0.12564595  0.36177573     0.19000
H1049       H  0.64382528  0.21872802  0.35953490     0.19000
H1050       H  0.66348516  0.06158752  0.30178556     0.14800
C1051       C  0.69389223  0.57303514  0.33053892     0.30300
C1052       C  0.69593639  0.53924642  0.31996875    -0.36100
C1053       C  0.68687183  0.49652506  0.32773090     0.16300
C1054       C  0.67657110  0.48761767  0.34474259     0.22100
C1055       C  0.67520987  0.52168371  0.35535727    -0.34200
C1056       C  0.68425482  0.56442102  0.34759313     0.16200
O1057       O  0.69769882  0.61381379  0.32570792    -0.26200
C1058       C  0.69074774  0.63184336  0.33986338     0.06000
C1059       C  0.68254747  0.60271751  0.35390294    -0.31100
O1060       O  0.66821977  0.44487061  0.34926252    -0.22900
C1061       C  0.67341666  0.42624958  0.33496597    -0.02900
C1062       C  0.68505882  0.45676300  0.32116792    -0.17300
H1063       H  0.70296460  0.54536889  0.30654173     0.20700
H1064       H  0.66671323  0.51493924  0.36868035     0.19000
H1065       H  0.67380459  0.60771867  0.36667896     0.19000
H1066       H  0.69134703  0.45046305  0.30822387     0.14800
C1067       C  0.56913888  0.95132747  0.45519930     0.30300
C1068       C  0.57165841  0.91453735  0.44692807    -0.36100
C1069       C  0.60081654  0.92763727  0.43257793     0.16300
C1070       C  0.62555898  0.97376301  0.42652735     0.22100
C1071       C  0.62375715  0.01103694  0.43503956    -0.34200
C1072       C  0.59476051  0.99792220  0.44960734     0.16200
O1073       O  0.54198417  0.94609487  0.46833798    -0.26200
C1074       C  0.55055677  0.98990583  0.47146946     0.06000
C1075       C  0.58329982  0.02389099  0.46030230    -0.31100
O1076       O  0.64680041  0.97665574  0.41189594    -0.22900
C1077       C  0.63583930  0.93183331  0.40876468    -0.02900
C1078       C  0.60766302  0.90009103  0.42130704    -0.17300
H1079       H  0.55111270  0.87787041  0.45112285     0.20700
H1080       H  0.64239360  0.04731172  0.43036100     0.19000
H1081       H  0.59543337  0.06164074  0.45981001     0.19000
H1082       H  0.59164246  0.86167318  0.42147595     0.14800
C1083       C  0.55384736  0.66755336  0.42893429     0.30300
C1084       C  0.54701001  0.66609416  0.44652084    -0.36100
C1085       C  0.53682087  0.62343636  0.45456672     0.16300
C1086       C  0.53291602  0.58479587  0.44581779     0.22100
C1087       C  0.53996560  0.58631956  0.42829723    -0.34200
C1088       C  0.55081741  0.62910619  0.42030924     0.16200
O1089       O  0.56625770  0.70461601  0.41900767    -0.26200
C1090       C  0.57157515  0.68977662  0.40389270     0.06000
C1091       C  0.56246787  0.64308522  0.40393863    -0.31100
O1092       O  0.52290984  0.54844924  0.45574332    -0.22900
C1093       C  0.52064576  0.56389382  0.47110274    -0.02900
C1094       C  0.52933217  0.61049983  0.47120774    -0.17300
H1095       H  0.55032737  0.69637499  0.45346587     0.20700
H1096       H  0.53789936  0.55646690  0.42142555     0.19000
H1097       H  0.56585749  0.62312609  0.39358370     0.19000
H1098       H  0.52925533  0.63129529  0.48190286     0.14800
C1099       C  0.73051515  0.70753217  0.24464530     0.30300
C1100       C  0.74090028  0.67391832  0.23777980    -0.36100
C1101       C  0.76242187  0.68483314  0.22178948     0.16300
C1102       C  0.77269032  0.72581073  0.21306376     0.22100
C1103       C  0.76250230  0.75957288  0.21996390    -0.34200
C1104       C  0.74118655  0.74875874  0.23601527     0.16200
O1105       O  0.71265975  0.70564058  0.25978449    -0.26200
C1106       C  0.71191532  0.74617664  0.26089453     0.06000
C1107       C  0.72915013  0.77440974  0.24646179    -0.31100
O1108       O  0.79192853  0.72822831  0.19813870    -0.22900
C1109       C  0.79458956  0.68864703  0.19746495    -0.02900
C1110       C  0.77656913  0.66016290  0.21175481    -0.17300
H1111       H  0.73327690  0.64179631  0.24452670     0.20700
H1112       H  0.77093993  0.79212096  0.21334781     0.19000
H1113       H  0.73429631  0.80968524  0.24434112     0.19000
H1114       H  0.77337111  0.62581098  0.21417099     0.14800
C1115       C  0.51079981  0.18752678  0.32780556     0.30300
C1116       C  0.47443673  0.15106437  0.31818414    -0.36100
C1117       C  0.43512040  0.11621769  0.32727505     0.16300
C1118       C  0.43180689  0.11678545  0.34467330     0.22100
C1119       C  0.46792040  0.15373140  0.35429496    -0.34200
C1120       C  0.50720725  0.18880138  0.34518317     0.16200
O1121       O  0.55125866  0.22299013  0.32192158    -0.26200
C1122       C  0.57377147  0.24746227  0.33569862     0.06000
C1123       C  0.54809697  0.22802742  0.35052788    -0.31100
O1124       O  0.39340633  0.07865487  0.35060125    -0.22900
C1125       C  0.37160772  0.05370301  0.33677550    -0.02900
C1126       C  0.39589383  0.07559670  0.32192634    -0.17300
H1127       H  0.47702394  0.14947302  0.30457028     0.20700
H1128       H  0.46602818  0.15452978  0.36795315     0.19000
H1129       H  0.55838139  0.24083822  0.36334021     0.19000
H1130       H  0.38722229  0.06217262  0.30911193     0.14800
C1131       C  0.82572073  0.47354139  0.33796233     0.30300
C1132       C  0.86621418  0.50590628  0.34709101    -0.36100
C1133       C  0.90440157  0.54028500  0.33748523     0.16300
C1134       C  0.90294104  0.54290198  0.32008159     0.22100
C1135       C  0.86255805  0.51011675  0.31091640    -0.34200
C1136       C  0.82429503  0.47567952  0.32053575     0.16200
O1137       O  0.78583248  0.43880834  0.34441989    -0.26200
C1138       C  0.75850139  0.41863187  0.33095775     0.06000
C1139       C  0.78049713  0.43977760  0.31575304    -0.31100
O1140       O  0.94126376  0.58034775  0.31384261    -0.22900
C1141       C  0.96767078  0.60170755  0.32743617    -0.02900
C1142       C  0.94659982  0.57809065  0.34245804    -0.17300
H1143       H  0.86751802  0.50491478  0.36076107     0.20700
H1144       H  0.86065929  0.51201913  0.29728984     0.19000
H1145       H  0.76635751  0.42968861  0.30307591     0.19000
H1146       H  0.95910196  0.58903289  0.35527269     0.14800
C1147       C  0.03010219  0.59073981  0.44784388     0.30300
C1148       C  0.01326614  0.59528556  0.43200799    -0.36100
C1149       C  0.04198708  0.63825544  0.42342144     0.16300
C1150       C  0.08460842  0.67403111  0.42990004     0.22100
C1151       C  0.10106079  0.66980227  0.44585374    -0.34200
C1152       C  0.07213472  0.62701070  0.45449930     0.16200
O1153       O  0.00909843  0.55353078  0.45797861    -0.26200
C1154       C  0.03792212  0.56622331  0.47131614     0.06000
C1155       C  0.07755998  0.61168434  0.46992932    -0.31100
O1156       O  0.10775051  0.70933251  0.41912945    -0.22900
C1157       C  0.07935382  0.69634674  0.40565761    -0.02900
C1158       C  0.03767481  0.65260001  0.40765696    -0.17300
H1159       H  0.98045351  0.56700172  0.42664905     0.20700
H1160       H  0.13454061  0.69753723  0.45101025     0.19000
H1161       H  0.10589640  0.63063964  0.47902947     0.19000
H1162       H  0.01006516  0.63275634  0.39839903     0.14800
C1163       C  0.34721939  0.88033701  0.42595893     0.30300
C1164       C  0.35115518  0.87202874  0.44319485    -0.36100
C1165       C  0.39192564  0.90730869  0.45159141     0.16300
C1166       C  0.42686284  0.94748291  0.44349788     0.22100
C1167       C  0.42296124  0.95572407  0.42629922    -0.34200
C1168       C  0.38188053  0.92093415  0.41799079     0.16200
O1169       O  0.31044707  0.85405178  0.41598903    -0.26200
C1170       C  0.32163739  0.87828048  0.40147341     0.06000
C1171       C  0.36570277  0.92014988  0.40202319    -0.31100
O1172       O  0.46097975  0.97673794  0.45385750    -0.22900
C1173       C  0.44762655  0.95538952  0.46886662    -0.02900
C1174       C  0.40485444  0.91206345  0.46822696    -0.17300
H1175       H  0.32354273  0.84110905  0.44974216     0.20700
H1176       H  0.44935375  0.98786627  0.41997524     0.19000
H1177       H  0.38232755  0.94717656  0.39231872     0.19000
H1178       H  0.38573852  0.88812112  0.47857473     0.14800
C1179       C  0.99087300  0.76548969  0.23826555     0.30300
C1180       C  0.98713950  0.77065911  0.22080451    -0.36100
C1181       C  0.94551358  0.73506922  0.21302653     0.16300
C1182       C  0.90959186  0.69735810  0.22185283     0.22100
C1183       C  0.91340598  0.69201274  0.23930728    -0.34200
C1184       C  0.95536004  0.72730927  0.24704943     0.16200
O1185       O  0.02792732  0.79315532  0.24785806    -0.26200
C1186       C  0.01620365  0.77232466  0.26297681     0.06000
C1187       C  0.97136589  0.73125168  0.26322753    -0.31100
O1188       O  0.87301909  0.66929319  0.21213714    -0.22900
C1189       C  0.88596693  0.68902192  0.19686994    -0.02900
C1190       C  0.93083192  0.72981348  0.19663862    -0.17300
H1191       H  0.01504059  0.80005706  0.21373542     0.20700
H1192       H  0.88577600  0.66225427  0.24632841     0.19000
H1193       H  0.95416854  0.70666471  0.27360733     0.19000
H1194       H  0.94890702  0.75327853  0.18606818     0.14800
C1195       C  0.91537522  0.32613938  0.09470534     0.30300
C1196       C  0.87655322  0.30040394  0.10560795    -0.36100
C1197       C  0.88109330  0.27005246  0.11708190     0.16300
C1198       C  0.92156834  0.26613309  0.11810106     0.22100
C1199       C  0.96043123  0.29174768  0.10709533    -0.34200
C1200       C  0.95537834  0.32128727  0.09526922     0.16200
O1201       O  0.91725154  0.35433896  0.08240266    -0.26200
C1202       C  0.95862588  0.36737257  0.07475085     0.06000
C1203       C  0.98395497  0.34777460  0.08214491    -0.31100
O1204       O  0.91813634  0.23590794  0.12995989    -0.22900
C1205       C  0.87448961  0.21956251  0.13630855    -0.02900
C1206       C  0.84992033  0.23971852  0.12881349    -0.17300
H1207       H  0.84452192  0.30300776  0.10490523     0.20700
H1208       H  0.99188072  0.28808846  0.10748277     0.19000
H1209       H  0.01756154  0.35130112  0.07811630     0.19000
H1210       H  0.81461130  0.23355066  0.13182627     0.14800
C1211       C  0.69733895  0.07007162  0.08799576     0.30300
C1212       C  0.74394373  0.08760967  0.09408203    -0.36100
C1213       C  0.75198731  0.10332587  0.11091700     0.16300
C1214       C  0.71643020  0.10107035  0.12120506     0.22100
C1215       C  0.66983752  0.08385358  0.11507460    -0.34200
C1216       C  0.66198093  0.06890598  0.09811740     0.16200
O1217       O  0.68264646  0.05574891  0.07241371    -0.26200
C1218       C  0.63738044  0.04567102  0.07245058     0.06000
C1219       C  0.62256137  0.05324038  0.08810911    -0.31100
O1220       O  0.73172343  0.11658482  0.13666986    -0.22900
C1221       C  0.77792004  0.12985448  0.13616493    -0.02900
C1222       C  0.79242684  0.12232490  0.12045571    -0.17300
H1223       H  0.77216556  0.08956855  0.08615509     0.20700
H1224       H  0.64184676  0.08274006  0.12290961     0.19000
H1225       H  0.58832888  0.04937202  0.09143860     0.19000
H1226       H  0.82739528  0.12872842  0.11677508     0.14800
C1227       C  0.79237956  0.01201325  0.24072231     0.30300
C1228       C  0.81087029  0.01840014  0.22426838    -0.36100
C1229       C  0.80570042  0.05106429  0.21414722     0.16300
C1230       C  0.78409588  0.07597511  0.21982010     0.22100
C1231       C  0.76616926  0.07004100  0.23632360    -0.34200
C1232       C  0.77130622  0.03737506  0.24643161     0.16200
O1233       O  0.78999055  0.98067328  0.25191733    -0.26200
C1234       C  0.76747438  0.98641573  0.26500763     0.06000
C1235       C  0.75541409  0.02151221  0.26233235    -0.31100
O1236       O  0.78425296  0.10560950  0.20836004    -0.22900
C1237       C  0.80587181  0.09921259  0.19515727    -0.02900
C1238       C  0.82017545  0.06593851  0.19803366    -0.17300
H1239       H  0.82741818  0.99874095  0.21959607     0.20700
H1240       H  0.74905910  0.08924347  0.24091947     0.19000
H1241       H  0.73489100  0.03146465  0.27046254     0.19000
H1242       H  0.84038435  0.05604638  0.18972413     0.14800
C1243       C  0.41688905  0.30282665  0.08836834     0.30300
C1244       C  0.37857262  0.26618517  0.09722247    -0.36100
C1245       C  0.38789844  0.25941529  0.11396069     0.16300
C1246       C  0.43205056  0.28632508  0.12148388     0.22100
C1247       C  0.47071424  0.32251108  0.11251071    -0.34200
C1248       C  0.46123744  0.32965644  0.09577040     0.16200
O1249       O  0.41464159  0.31827966  0.07319022    -0.26200
C1250       C  0.45810838  0.35542868  0.07075920     0.06000
C1251       C  0.48882577  0.36393489  0.08431921    -0.31100
O1252       O  0.43251643  0.27362688  0.13731908    -0.22900
C1253       C  0.38799838  0.23841496  0.13988928    -0.02900
C1254       C  0.35877027  0.22799619  0.12581460    -0.17300
H1255       H  0.34350310  0.24539765  0.09161937     0.20700
H1256       H  0.50536301  0.34430941  0.11829433     0.19000
H1257       H  0.52496999  0.39318221  0.08599065     0.19000
H1258       H  0.32186489  0.20014791  0.12441353     0.14800
C1259       C  0.40319167  0.09801312  0.08852511     0.30300
C1260       C  0.36445285  0.08744024  0.09923689    -0.36100
C1261       C  0.37564384  0.11304577  0.11445074     0.16300
C1262       C  0.42165963  0.14751605  0.11860642     0.22100
C1263       C  0.46036537  0.15811337  0.10790304    -0.34200
C1264       C  0.44931350  0.13176261  0.09287000     0.16200
O1265       O  0.40124871  0.07614157  0.07425040    -0.26200
C1266       C  0.44670192  0.09579547  0.06943309     0.06000
C1267       C  0.47825028  0.13068605  0.08053804    -0.31100
O1268       O  0.42394170  0.16776057  0.13327368    -0.22900
C1269       C  0.37898758  0.14536996  0.13875138    -0.02900
C1270       C  0.34726197  0.11094736  0.12758352    -0.17300
H1271       H  0.32829020  0.06035211  0.09610450     0.20700
H1272       H  0.49665894  0.18443205  0.11122333     0.19000
H1273       H  0.51688500  0.15074088  0.07998153     0.19000
H1274       H  0.30884881  0.08903693  0.12871297     0.14800
C1275       C  0.29604315  0.02756756  0.24469050     0.30300
C1276       C  0.32541583  0.07487839  0.23935994    -0.36100
C1277       C  0.31849166  0.08514299  0.22272096     0.16300
C1278       C  0.28558775  0.05101648  0.21194020     0.22100
C1279       C  0.25580108  0.00377647  0.21733858    -0.34200
C1280       C  0.26216404  0.99366679  0.23409241     0.16200
O1281       O  0.29533939  0.01069150  0.25992217    -0.26200
C1282       C  0.26029188  0.96546111  0.25917878     0.06000
C1283       C  0.23820068  0.95287548  0.24341848    -0.31100
O1284       O  0.28640623  0.06812834  0.19671647    -0.22900
C1285       C  0.31954993  0.11405699  0.19786934    -0.02900
C1286       C  0.34071803  0.12661900  0.21377077    -0.17300
H1287       H  0.35152014  0.10190960  0.24766909     0.20700
H1288       H  0.22933281  0.97688037  0.20908821     0.19000
H1289       H  0.20800155  0.91912972  0.23958806     0.19000
H1290       H  0.36947791  0.16091078  0.21790863     0.14800
C1291       C  0.51344423  0.32693032  0.32909473     0.30300
C1292       C  0.47279912  0.31728205  0.31977511    -0.36100
C1293       C  0.43477618  0.31479604  0.32906083     0.16300
C1294       C  0.43640806  0.32121487  0.34636080     0.22100
C1295       C  0.47705907  0.33051922  0.35573501    -0.34200
C1296       C  0.51535047  0.33338152  0.34640331     0.16200
O1297       O  0.55259554  0.32975351  0.32296285    -0.26200
C1298       C  0.58025625  0.33879046  0.33645902     0.06000
C1299       C  0.55902161  0.34127379  0.35142384    -0.31100
O1300       O  0.39785146  0.32049767  0.35223554    -0.22900
C1301       C  0.37128810  0.31342130  0.33849998    -0.02900
C1302       C  0.39239872  0.30929053  0.32376181    -0.17300
H1303       H  0.47113989  0.31255645  0.30618872     0.20700
H1304       H  0.47901483  0.33598247  0.36928454     0.19000
H1305       H  0.57289565  0.34588921  0.36416174     0.19000
H1306       H  0.37968048  0.30576316  0.31088359     0.14800
C1307       C  0.81555578  0.33339985  0.32235740     0.30300
C1308       C  0.85333834  0.33861416  0.31209161    -0.36100
C1309       C  0.89267084  0.34118788  0.32057665     0.16300
C1310       C  0.89473136  0.33892265  0.33796811     0.22100
C1311       C  0.85685614  0.33341224  0.34822528    -0.34200
C1312       C  0.81746828  0.33060525  0.33974322     0.16200
O1313       O  0.77608060  0.33193595  0.31715797    -0.26200
C1314       C  0.75224270  0.32750957  0.33139730     0.06000
C1315       C  0.77620968  0.32653267  0.34582889    -0.31100
O1316       O  0.93448386  0.34116458  0.34322344    -0.22900
C1317       C  0.95832011  0.34493774  0.32902852    -0.02900
C1318       C  0.93396412  0.34506440  0.31453219    -0.17300
H1319       H  0.85222093  0.34069517  0.29844798     0.20700
H1320       H  0.85800880  0.33141783  0.36187320     0.19000
H1321       H  0.76552171  0.32499581  0.35889899     0.19000
H1322       H  0.94448283  0.34629072  0.30145523     0.14800
C1323       C  0.04065967  0.39832025  0.42411822     0.30300
C1324       C  0.00870963  0.41135903  0.43098798    -0.36100
C1325       C  0.02149630  0.43471714  0.44671134     0.16300
C1326       C  0.06270959  0.44423606  0.45513783     0.22100
C1327       C  0.09467829  0.43140349  0.44825339    -0.34200
C1328       C  0.08200302  0.40827703  0.43253085     0.16200
O1329       O  0.03720058  0.37856482  0.40916973    -0.26200
C1330       C  0.07687769  0.37585342  0.40799190     0.06000
C1331       C  0.10596138  0.39374214  0.42220762    -0.31100
O1332       O  0.06725535  0.46545756  0.46981135    -0.22900
C1333       C  0.02874380  0.47012352  0.47075175    -0.02900
C1334       C  0.99891387  0.45162435  0.45675624    -0.17300
H1335       H  0.97646171  0.40433171  0.42443533     0.20700
H1336       H  0.12738939  0.43925796  0.45465591     0.19000
H1337       H  0.14091674  0.39782425  0.42423134     0.19000
H1338       H  0.96507608  0.44990190  0.45454189     0.14800
C1339       C  0.39444712  0.47088885  0.45215578     0.30300
C1340       C  0.36489010  0.48199630  0.44255545    -0.36100
C1341       C  0.35042837  0.45927677  0.42683844     0.16300
C1342       C  0.36470630  0.42831559  0.42091095     0.22100
C1343       C  0.39413926  0.41706838  0.43054329    -0.34200
C1344       C  0.40791186  0.43914559  0.44639117     0.16200
O1345       O  0.41331228  0.48922024  0.46693776    -0.26200
C1346       C  0.43845260  0.46833106  0.47084301     0.06000
C1347       C  0.43636003  0.43665249  0.45858087    -0.31100
O1348       O  0.34531825  0.40949870  0.40623264    -0.22900
C1349       C  0.31798232  0.42830273  0.40274185    -0.02900
C1350       C  0.31980976  0.45969402  0.41509659    -0.17300
H1351       H  0.35368126  0.50636761  0.44708903     0.20700
H1352       H  0.40495102  0.39231595  0.42608803     0.19000
H1353       H  0.45530165  0.41703282  0.45826671     0.19000
H1354       H  0.29969833  0.47810793  0.41573762     0.14800
C1355       C  0.91858318  0.19999112  0.22060764     0.30300
C1356       C  0.91948677  0.20880341  0.23801609    -0.36100
C1357       C  0.96116780  0.21796245  0.24657667     0.16300
C1358       C  0.99906189  0.21785491  0.23857982     0.22100
C1359       C  0.99830975  0.20946054  0.22113543    -0.34200
C1360       C  0.95688892  0.20093106  0.21253097     0.16200
O1361       O  0.88301189  0.19005945  0.21022023    -0.26200
C1362       C  0.89888645  0.18509027  0.19525875     0.06000
C1363       C  0.94477697  0.19175156  0.19588271    -0.31100
O1364       O  0.03488066  0.22833179  0.24893454    -0.22900
C1365       C  0.01992214  0.23554236  0.26373778    -0.02900
C1366       C  0.97432283  0.22971200  0.26303050    -0.17300
H1367       H  0.88988794  0.20881047  0.24440573     0.20700
H1368       H  0.02813463  0.21003310  0.21470140     0.19000
H1369       H  0.96542136  0.18875799  0.18567121     0.19000
H1370       H  0.95451151  0.23491862  0.27303034     0.14800
C1371       C  0.26001867  0.25339726  0.23899416     0.30300
C1372       C  0.24633476  0.21664540  0.22713444    -0.36100
C1373       C  0.28289292  0.21913757  0.21690249     0.16300
C1374       C  0.32958842  0.25594589  0.21793071     0.22100
C1375       C  0.34340043  0.29257665  0.22992255    -0.34200
C1376       C  0.30693362  0.28949482  0.24045298     0.16200
O1377       O  0.23205589  0.25622319  0.25048566    -0.26200
C1378       C  0.26131674  0.29428148  0.25961699     0.06000
C1379       C  0.30846610  0.31647114  0.25397646    -0.31100
O1380       O  0.35760632  0.25172239  0.20675827    -0.22900
C1381       C  0.32861146  0.21110510  0.19877991    -0.02900
C1382       C  0.28174793  0.18930439  0.20457179    -0.17300
H1383       H  0.20984821  0.18754880  0.22620121     0.20700
H1384       H  0.38010813  0.32100706  0.23114206     0.19000
H1385       H  0.33952907  0.34663408  0.25949410     0.19000
H1386       H  0.25111876  0.15695669  0.19997758     0.14800
loop_ 
_geom_bond_atom_site_label_1 
_geom_bond_atom_site_label_2 
_geom_bond_distance 
_geom_bond_site_symmetry_2 
_ccdc_geom_bond_type 
O1           Mg3   2.163       .  S
O1           Mg9   2.163       .  S
O1           C36   1.235       .  S
C2           O15   1.235       .  S
C2           O39   1.269       .  A
C2           H41   1.082       .  S
Mg3          O32   2.160       .  S
Mg3          O47   2.300       .  S
Mg3          O43   2.285       .  S
Mg3          O14   2.297       .  S
O4          Mg46   2.165       .  S
O4          Mg29   2.132       .  S
O4           C25   1.235       .  S
O5           C36   1.271       .  A
O5          Mg29   2.307       .  S
C6            O8   1.273       .  A
C6           O20   1.271       .  A
C6         C1349   1.466       .  S
O7           C35   1.270       .  A
O7           Mg9   2.299       .  S
O8          Mg40   2.274       .  S
Mg9          O15   2.157       .  S
Mg9          O23   2.270       .  S
Mg9          O11   2.312       .  S
C10          O48   1.271       .  A
C10          O16   1.274       .  A
C10        C1301   1.468       .  S
O11          C18   1.275       .  A
H12          C25   1.083       .  S
C13          O27   1.235       .  S
C13          O28   1.269       .  A
C13          H38   1.082       .  S
O14          C37   1.268       .  A
O15         Mg29   2.155       .  S
O16         Mg46   2.292       .  S
C17          O30   1.272       .  A
C17          O22   1.274       .  A
C17        C1378   1.471       .  S
C18          O45   1.270       .  A
C18        C1365   1.468       .  S
Mg19         O26   2.143       .  S
Mg19         O27   2.164       .  S
Mg19         O20   2.276       .  S
Mg19         O21   2.291       .  S
Mg19         O48   2.265       .  S
O21          C25   1.268       .  A
O22         Mg29   2.302       .  S
O23          C42   1.272       .  A
O24          C44   1.276       .  A
O24         Mg40   2.308       .  S
O26         Mg40   2.162       .  S
O26          C37   1.234       .  S
O27         Mg46   2.143       .  S
O28         Mg40   2.294       .  S
Mg29         O45   2.253       .  S
O30         Mg46   2.272       .  S
H31          C36   1.082       .  S
O32         Mg40   2.150       .  S
O32          C35   1.235       .  S
H33          C35   1.083       .  S
H34          C37   1.082       .  S
O39         Mg46   2.298       .  S
C42          O47   1.274       .  A
C42        C1317   1.472   1_455  S
O43          C44   1.274       .  A
C44        C1330   1.476       .  S
C49        C1381   1.477       .  S
C49          C50   1.418       .  A
C49          C54   1.404       .  A
C50        C1285   1.480       .  S
C50          C51   1.405       .  A
C51          H56   1.085       .  S
C51          C52   1.400       .  A
C52        C1269   1.474       .  S
C52          C53   1.407       .  A
C53        C1253   1.471       .  S
C53          C54   1.399       .  A
C54          H55   1.085       .  S
C57        C1237   1.469       .  S
C57          C58   1.408       .  A
C57          C62   1.400       .  A
C58        C1362   1.477       .  S
C58          C59   1.400       .  A
C59          H64   1.085       .  S
C59          C60   1.403       .  A
C60        C1205   1.476       .  S
C60          C61   1.419       .  A
C61        C1221   1.481       .  S
C61          C62   1.404       .  A
C62          H63   1.085       .  S
O65         Mg67   2.151       .  S
O65         Mg73   2.163       .  S
O65         C100   1.236       .  S
C66          O79   1.236       .  S
C66         O103   1.270       .  A
C66         H105   1.082       .  S
Mg67         O96   2.153       .  S
Mg67        O111   2.297       .  S
Mg67        O107   2.261       .  S
Mg67         O78   2.304       .  S
O68        Mg110   2.157       .  S
O68         Mg93   2.152       .  S
O68          C89   1.236       .  S
O69         C100   1.270       .  A
O69         Mg93   2.301       .  S
C70          O72   1.273       .  A
C70          O84   1.274       .  A
C70        C1186   1.471       .  S
O71          C99   1.271       .  A
O71         Mg73   2.306       .  S
O72        Mg104   2.279       .  S
Mg73         O79   2.142       .  S
Mg73         O87   2.280       .  S
Mg73         O75   2.321       .  S
C74         O112   1.271       .  A
C74          O80   1.273       .  A
C74        C1141   1.470   1_455  S
O75          C82   1.277       .  A
H76          C89   1.083       .  S
C77          O91   1.235       .  S
C77          O92   1.269       .  A
C77         H102   1.082       .  S
O78         C101   1.270       .  A
O79         Mg93   2.151       .  S
O80        Mg110   2.288       .  S
C81          O94   1.270       .  A
C81          O86   1.272       .  A
C81        C1157   1.466       .  S
C82         O109   1.272       .  A
C82        C1170   1.476       .  S
Mg83         O90   2.148       .  S
Mg83         O91   2.151       .  S
Mg83         O84   2.301       .  S
Mg83         O85   2.300       .  S
Mg83        O112   2.272       .  S
O85          C89   1.270       .  A
O86         Mg93   2.294       .  S
O87         C106   1.272   1_565  A
O88         C108   1.275       .  A
O88        Mg104   2.318       .  S
O90        Mg104   2.150       .  S
O90         C101   1.235       .  S
O91        Mg110   2.140       .  S
O92        Mg104   2.300       .  S
Mg93        O109   2.274       .  S
O94        Mg110   2.260       .  S
H95         C100   1.082       .  S
O96        Mg104   2.165       .  S
O96          C99   1.236       .  S
H97          C99   1.083       .  S
H98         C101   1.082       .  S
O103       Mg110   2.297       .  S
C106        O111   1.274   1_545  A
C106       C1125   1.475       .  S
O107        C108   1.270       .  A
C108       C1282   1.471       .  S
O113       Mg115   2.146       .  S
O113       Mg121   2.151       .  S
O113        C148   1.236       .  S
C114        O127   1.236       .  S
C114        O151   1.271       .  A
C114        H153   1.082       .  S
Mg115       O144   2.155       .  S
Mg115       O159   2.316       .  S
Mg115       O155   2.258       .  S
Mg115       O126   2.301       .  S
O116       Mg158   2.156       .  S
O116       Mg141   2.129       .  S
O116        C137   1.234       .  S
O117        C148   1.271       .  A
O117       Mg141   2.307       .  S
C118        O120   1.271       .  A
C118        O132   1.272       .  A
C118       C1234   1.468       .  S
O119        C147   1.270       .  A
O119       Mg121   2.301       .  S
O120       Mg152   2.272       .  S
Mg121       O127   2.161       .  S
Mg121       O135   2.282       .  S
Mg121       O123   2.306       .  S
C122        O160   1.271       .  A
C122        O128   1.274       .  A
C122       C1045   1.468   1_565  S
O123        C130   1.275       .  A
H124        C137   1.083       .  S
C125        O139   1.236       .  S
C125        O140   1.270       .  A
C125        H150   1.081       .  S
O126        C149   1.270       .  A
O127       Mg141   2.150       .  S
O128       Mg158   2.301       .  S
C129        O142   1.271       .  A
C129        O134   1.276       .  A
C129       C1077   1.474       .  S
C130        O157   1.269       .  A
C130       C1090   1.465       .  S
Mg131       O138   2.142       .  S
Mg131       O139   2.160       .  S
Mg131       O132   2.281       .  S
Mg131       O133   2.289       .  S
Mg131       O160   2.259       .  S
O133        C137   1.268       .  A
O134       Mg141   2.302       .  S
O135        C154   1.273       .  A
O136        C156   1.273       .  A
O136       Mg152   2.294       .  S
O138       Mg152   2.154       .  S
O138        C149   1.235       .  S
O139       Mg158   2.140       .  S
O140       Mg152   2.294       .  S
Mg141       O157   2.251       .  S
O142       Mg158   2.274       .  S
H143        C148   1.082       .  S
O144       Mg152   2.152       .  S
O144        C147   1.235       .  S
H145        C147   1.083       .  S
H146        C149   1.082       .  S
O151       Mg158   2.304       .  S
C154        O159   1.275       .  A
C154       C1058   1.478       .  S
O155        C156   1.271       .  A
C156       C1106   1.465       .  S
C161       C1109   1.469       .  S
C161        C162   1.410       .  A
C161        C166   1.397       .  A
C162       C1189   1.476       .  S
C162        C163   1.405       .  A
C163        H168   1.084       .  S
C163        C164   1.407       .  A
C164       C1010   1.478       .  S
C164        C165   1.411       .  A
C165       C1026   1.469       .  S
C165        C166   1.398       .  A
C166        H167   1.085       .  S
O169       Mg171   2.147   1_554  S
O169       Mg177   2.168   1_545  S
O169        C204   1.235       .  S
C170        O183   1.236       .  S
C170        O207   1.271       .  A
C170        H209   1.082       .  S
Mg171       O200   2.168   1_545  S
Mg171       O215   2.297   1_545  S
Mg171       O211   2.272   1_545  S
Mg171       O182   2.292       .  S
O172       Mg214   2.149   1_545  S
O172       Mg197   2.158       .  S
O172        C193   1.235       .  S
O173        C204   1.269       .  A
O173       Mg197   2.296       .  S
C174        O176   1.273       .  A
C174        O188   1.273       .  A
C174        C997   1.470       .  S
O175        C203   1.268   1_554  A
O175       Mg177   2.289       .  S
O176       Mg208   2.276       .  S
Mg177       O183   2.154       .  S
Mg177       O191   2.279       .  S
Mg177       O179   2.296   1_565  S
C178        O216   1.271       .  A
C178        O184   1.276   1_556  A
C178        C946   1.475       .  S
O179        C186   1.274       .  A
H180        C193   1.082       .  S
C181        O195   1.235       .  S
C181        O196   1.269       .  A
C181        H206   1.082   1_556  S
O182        C205   1.269       .  A
O183       Mg197   2.162   1_565  S
O184       Mg214   2.311   1_545  S
C185        O198   1.271       .  A
C185        O190   1.276       .  A
C185       C1218   1.472       .  S
C186        O213   1.273       .  A
C186       C1266   1.470       .  S
Mg187       O194   2.146   1_545  S
Mg187       O195   2.159   1_545  S
Mg187       O188   2.293   1_545  S
Mg187       O189   2.304       .  S
Mg187       O216   2.274       .  S
O189        C193   1.270   1_556  A
O190       Mg197   2.319       .  S
O191        C210   1.274       .  A
O192        C212   1.275       .  A
O192       Mg208   2.298       .  S
O194       Mg208   2.168       .  S
O194        C205   1.235   1_565  S
O195       Mg214   2.150   1_556  S
O196       Mg208   2.297       .  S
Mg197       O213   2.274       .  S
O198       Mg214   2.267   1_545  S
H199        C204   1.082   1_556  S
O200       Mg208   2.143       .  S
O200        C203   1.234       .  S
H201        C203   1.083       .  S
H202        C205   1.082       .  S
O207       Mg214   2.306       .  S
C210        O215   1.274   1_554  A
C210        C965   1.472       .  S
O211        C212   1.272       .  A
C212        C978   1.471       .  S
O217       Mg219   2.142   1_556  S
O217       Mg225   2.161       .  S
O217        C252   1.235       .  S
C218        O231   1.236       .  S
C218        O255   1.271       .  A
C218        H257   1.082       .  S
Mg219       O248   2.149       .  S
Mg219       O263   2.291       .  S
Mg219       O259   2.274       .  S
Mg219       O230   2.301       .  S
O220       Mg262   2.149       .  S
O220       Mg245   2.149       .  S
O220        C241   1.235       .  S
O221        C252   1.269       .  A
O221       Mg245   2.297       .  S
C222        O224   1.270       .  A
C222        O236   1.274       .  A
C222       C1250   1.466       .  S
O223        C251   1.268   1_556  A
O223       Mg225   2.293       .  S
O224       Mg256   2.249       .  S
Mg225       O231   2.151       .  S
Mg225       O239   2.270       .  S
Mg225       O227   2.306       .  S
C226        O264   1.272       .  A
C226        O232   1.275   1_554  A
C226        C885   1.473       .  S
O227        C234   1.274       .  A
H228        C241   1.083       .  S
C229        O243   1.236       .  S
C229        O244   1.270       .  A
C229        H254   1.082   1_554  S
O230        C253   1.270       .  A
O231       Mg245   2.148       .  S
O232       Mg262   2.306       .  S
C233        O246   1.271       .  A
C233        O238   1.271       .  A
C233        C930   1.468       .  S
C234        O261   1.269       .  A
C234        C914   1.467       .  S
Mg235       O242   2.147       .  S
Mg235       O243   2.152       .  S
Mg235       O236   2.303       .  S
Mg235       O237   2.307       .  S
Mg235       O264   2.278       .  S
O237        C241   1.271   1_554  A
O238       Mg245   2.278       .  S
O239        C258   1.272       .  A
O240        C260   1.272       .  A
O240       Mg256   2.290       .  S
O242       Mg256   2.157       .  S
O242        C253   1.236       .  S
O243       Mg262   2.144   1_554  S
O244       Mg256   2.297       .  S
Mg245       O261   2.254       .  S
O246       Mg262   2.274       .  S
H247        C252   1.082   1_554  S
O248       Mg256   2.131       .  S
O248        C251   1.234       .  S
H249        C251   1.083       .  S
H250        C253   1.082       .  S
O255       Mg262   2.307       .  S
C258        O263   1.274   1_556  A
C258        C898   1.468       .  S
O259        C260   1.272       .  A
C260       C1029   1.468       .  S
O265       Mg267   2.151   1_556  S
O265       Mg273   2.163   1_455  S
O265        C300   1.235       .  S
C266        O279   1.235       .  S
C266        O303   1.269       .  A
C266        H305   1.082       .  S
Mg267       O296   2.179   1_455  S
Mg267       O311   2.311   1_455  S
Mg267       O307   2.280   1_455  S
Mg267       O278   2.298       .  S
O268       Mg310   2.153   1_455  S
O268       Mg293   2.160       .  S
O268        C289   1.236       .  S
O269        C300   1.270       .  A
O269       Mg293   2.302       .  S
C270        O272   1.273       .  A
C270        O284   1.276       .  A
C270       C1013   1.475       .  S
O271        C299   1.270   1_556  A
O271       Mg273   2.300       .  S
O272       Mg304   2.282       .  S
Mg273       O279   2.145       .  S
Mg273       O287   2.263       .  S
Mg273       O275   2.312   1_655  S
C274        O312   1.272       .  A
C274        O280   1.274   1_554  A
C274        C834   1.474       .  S
O275        C282   1.275       .  A
H276        C289   1.082       .  S
C277        O291   1.235       .  S
C277        O292   1.270       .  A
C277        H302   1.082   1_554  S
O278        C301   1.269       .  A
O279       Mg293   2.149   1_655  S
O280       Mg310   2.294   1_455  S
C281        O294   1.272       .  A
C281        O286   1.275       .  A
C281        C850   1.474       .  S
C282        O309   1.272       .  A
C282        C866   1.475       .  S
Mg283       O290   2.157       .  S
Mg283       O291   2.158   1_455  S
Mg283       O284   2.316   1_455  S
Mg283       O285   2.304       .  S
Mg283       O312   2.281       .  S
O285        C289   1.271   1_554  A
O286       Mg293   2.320       .  S
O287        C306   1.271       .  A
O288        C308   1.273       .  A
O288       Mg304   2.292       .  S
O290       Mg304   2.155   1_455  S
O290        C301   1.235       .  S
O291       Mg310   2.156   1_554  S
O292       Mg304   2.303       .  S
Mg293       O309   2.278       .  S
O294       Mg310   2.270   1_455  S
H295        C300   1.082   1_554  S
O296       Mg304   2.158       .  S
O296        C299   1.236       .  S
H297        C299   1.083       .  S
H298        C301   1.082       .  S
O303       Mg310   2.299       .  S
C306        O311   1.275   1_556  A
C306        C818   1.472       .  S
O307        C308   1.273       .  A
C308       C1202   1.468       .  S
O313       Mg315   2.152       .  S
O313       Mg321   2.158       .  S
O313        C348   1.235       .  S
C314        O327   1.236       .  S
C314        O351   1.271       .  A
C314        H353   1.082       .  S
Mg315       O344   2.160       .  S
Mg315       O359   2.301       .  S
Mg315       O355   2.285       .  S
Mg315       O326   2.299       .  S
O316       Mg358   2.151       .  S
O316       Mg341   2.154       .  S
O316        C337   1.235       .  S
O317        C348   1.269       .  A
O317       Mg341   2.299       .  S
C318        O320   1.270       .  A
C318        O332   1.275       .  A
C318        C802   1.469       .  S
O319        C347   1.269       .  A
O319       Mg321   2.299       .  S
O320       Mg352   2.263       .  S
Mg321       O327   2.156       .  S
Mg321       O335   2.273       .  S
Mg321       O323   2.319       .  S
C322        O360   1.272       .  A
C322        O328   1.276       .  A
C322        C725   1.475       .  S
O323        C330   1.276       .  A
H324        C337   1.083       .  S
C325        O339   1.236       .  S
C325        O340   1.271       .  A
C325        H350   1.082       .  S
O326        C349   1.270       .  A
O327       Mg341   2.154       .  S
O328       Mg358   2.318       .  S
C329        O342   1.271       .  A
C329        O334   1.272       .  A
C329        C770   1.468       .  S
C330        O357   1.270       .  A
C330        C757   1.472       .  S
Mg331       O338   2.152       .  S
Mg331       O339   2.148       .  S
Mg331       O332   2.308       .  S
Mg331       O333   2.306       .  S
Mg331       O360   2.272       .  S
O333        C337   1.271       .  A
O334       Mg341   2.296       .  S
O335        C354   1.273       .  A
O336        C356   1.274       .  A
O336       Mg352   2.293       .  S
O338       Mg352   2.153       .  S
O338        C349   1.236       .  S
O339       Mg358   2.147       .  S
O340       Mg352   2.303       .  S
Mg341       O357   2.259       .  S
O342       Mg358   2.263       .  S
H343        C348   1.082       .  S
O344       Mg352   2.142       .  S
O344        C347   1.235       .  S
H345        C347   1.083       .  S
H346        C349   1.082       .  S
O351       Mg358   2.307       .  S
C354        O359   1.274       .  A
C354        C741   1.470   1_545  S
O355        C356   1.272       .  A
C356        C789   1.474       .  S
C361        C933   1.468       .  S
C361        C362   1.411       .  A
C361        C366   1.397       .  A
C362        C869   1.482       .  S
C362        C363   1.409       .  A
C363        H368   1.084       .  S
C363        C364   1.409       .  A
C364        C709   1.481       .  S
C364        C365   1.412       .  A
C365        C773   1.471       .  S
C365        C366   1.398       .  A
C366        H367   1.085       .  S
C369        C981   1.474       .  S
C369        C370   1.417       .  A
C369        C374   1.405       .  A
C370        C853   1.482       .  S
C370        C371   1.404       .  A
C371        H376   1.084       .  S
C371        C372   1.402       .  A
C372        C690   1.471       .  S
C372        C373   1.408       .  A
C373        C754   1.478       .  S
C373        C374   1.400       .  A
C374        H375   1.084       .  S
O377       Mg379   2.158       .  S
O377       Mg385   2.151       .  S
O377        C412   1.235       .  S
C378        O391   1.236       .  S
C378        O415   1.272       .  A
C378        H417   1.082       .  S
Mg379       O408   2.152       .  S
Mg379       O423   2.303       .  S
Mg379       O419   2.274       .  S
Mg379       O390   2.300       .  S
O380       Mg422   2.150       .  S
O380       Mg405   2.162       .  S
O380        C401   1.236       .  S
O381        C412   1.271       .  A
O381       Mg405   2.307       .  S
C382        O384   1.272       .  A
C382        O396   1.275       .  A
C382        C661   1.476       .  S
O383        C411   1.271       .  A
O383       Mg385   2.308       .  S
O384       Mg416   2.271       .  S
Mg385       O391   2.162       .  S
Mg385       O399   2.282       .  S
Mg385       O387   2.317       .  S
C386        O424   1.271   1_565  A
C386        O392   1.275   1_565  A
C386        C610   1.474       .  S
O387        C394   1.276       .  A
H388        C401   1.083       .  S
C389        O403   1.235       .  S
C389        O404   1.270       .  A
C389        H414   1.082       .  S
O390        C413   1.270       .  A
O391       Mg405   2.153       .  S
O392       Mg422   2.309       .  S
C393        O406   1.270       .  A
C393        O398   1.275       .  A
C393        C642   1.472       .  S
C394        O421   1.272       .  A
C394        C706   1.475       .  S
Mg395       O402   2.147       .  S
Mg395       O403   2.156       .  S
Mg395       O396   2.319       .  S
Mg395       O397   2.308       .  S
Mg395       O424   2.270       .  S
O397        C401   1.271       .  A
O398       Mg405   2.322       .  S
O399        C418   1.273       .  A
O400        C420   1.274       .  A
O400       Mg416   2.307       .  S
O402       Mg416   2.150       .  S
O402        C413   1.235       .  S
O403       Mg422   2.149       .  S
O404       Mg416   2.301       .  S
Mg405       O421   2.279       .  S
O406       Mg422   2.256       .  S
H407        C412   1.082       .  S
O408       Mg416   2.158       .  S
O408        C411   1.236       .  S
H409        C411   1.083       .  S
H410        C413   1.082       .  S
O415       Mg422   2.308       .  S
C418        O423   1.274       .  A
C418        C626   1.475   1_655  S
O419        C420   1.272       .  A
C420        C677   1.472       .  S
O425       Mg427   2.133       .  S
O425       Mg433   2.156       .  S
O425        C460   1.234       .  S
C426        O439   1.234       .  S
C426        O463   1.268       .  A
C426        H465   1.082       .  S
Mg427       O456   2.162       .  S
Mg427       O471   2.306       .  S
Mg427       O467   2.260       .  S
Mg427       O438   2.293       .  S
O428       Mg470   2.168       .  S
O428       Mg453   2.149       .  S
O428        C449   1.234       .  S
O429        C460   1.268       .  A
O429       Mg453   2.290       .  S
C430        O432   1.272       .  A
C430        O444   1.272       .  A
C430        C693   1.464       .  S
O431        C459   1.268       .  A
O431       Mg433   2.291       .  S
O432       Mg464   2.263       .  S
Mg433       O439   2.152       .  S
Mg433       O447   2.278       .  S
Mg433       O435   2.281       .  S
C434        O472   1.272       .  A
C434        O440   1.274       .  A
C434        C530   1.471   1_655  S
O435        C442   1.273       .  A
H436        C449   1.082       .  S
C437        O451   1.235       .  S
C437        O452   1.269       .  A
C437        H462   1.082       .  S
O438        C461   1.269       .  A
O439       Mg453   2.176       .  S
O440       Mg470   2.301       .  S
C441        O454   1.272       .  A
C441        O446   1.275       .  A
C441        C597   1.471       .  S
C442        O469   1.273       .  A
C442        C578   1.465       .  S
Mg443       O450   2.148       .  S
Mg443       O451   2.165       .  S
Mg443       O444   2.286       .  S
Mg443       O445   2.295       .  S
Mg443       O472   2.272       .  S
O445        C449   1.268       .  A
O446       Mg453   2.303       .  S
O447        C466   1.273       .  A
O448        C468   1.275       .  A
O448       Mg464   2.302       .  S
O450       Mg464   2.171       .  S
O450        C461   1.236       .  S
O451       Mg470   2.143       .  S
O452       Mg464   2.296       .  S
Mg453       O469   2.271       .  S
O454       Mg470   2.268       .  S
H455        C460   1.082       .  S
O456       Mg464   2.138       .  S
O456        C459   1.234       .  S
H457        C459   1.083       .  S
H458        C461   1.082       .  S
O463       Mg470   2.294       .  S
C466        O471   1.276       .  A
C466        C546   1.473       .  S
O467        C468   1.271       .  A
C468        C565   1.468       .  S
C473        C994   1.474       .  S
C473        C474   1.409       .  A
C473        C478   1.399       .  A
C474        C917   1.476       .  S
C474        C475   1.402       .  A
C475        H480   1.085       .  S
C475        C476   1.404       .  A
C476        C562   1.476       .  S
C476        C477   1.415       .  A
C477        C645   1.478       .  S
C477        C478   1.404       .  A
C478        H479   1.085       .  S
C481       C1154   1.472       .  S
C481        C482   1.411       .  A
C481        C486   1.404       .  A
C482       C1333   1.477       .  S
C482        C483   1.403       .  A
C483        H488   1.085   1_455  S
C483        C484   1.404   1_455  A
C484        C674   1.478       .  S
C484        C485   1.414   1_655  A
C485        C594   1.476   1_455  S
C485        C486   1.401       .  A
C486        H487   1.085       .  S
C489       C1346   1.470       .  S
C489        C490   1.412       .  A
C489        C494   1.402       .  A
C490       C1093   1.476       .  S
C490        C491   1.401       .  A
C491        H496   1.084       .  S
C491        C492   1.400       .  A
C492        C581   1.470       .  S
C492        C493   1.411       .  A
C493        C805   1.476       .  S
C493        C494   1.402       .  A
C494        H495   1.084       .  S
C497       C1074   1.474       .  S
C497        C498   1.414       .  A
C497        C502   1.405   1_565  A
C498       C1173   1.484       .  S
C498        C499   1.405       .  A
C499        H504   1.084       .  S
C499        C500   1.403   1_565  A
C500        C786   1.474       .  S
C500        C501   1.414       .  A
C501        C658   1.484       .  S
C501        C502   1.405       .  A
C502        H503   1.084       .  S
C505        C837   1.482   1_556  S
C505        C506   1.411   1_556  A
C505        C510   1.412   1_455  A
C506        C962   1.478   1_565  S
C506        C507   1.413   1_565  A
C507        C882   1.483       .  S
C507        C508   1.415   1_454  A
C508        C821   1.481       .  S
C508        C509   1.413   1_545  A
C509        C949   1.484       .  S
C509        C510   1.414       .  A
C510        C901   1.476       .  S
C511       C1314   1.480       .  S
C511        C512   1.409       .  A
C511        C516   1.411       .  A
C512       C1042   1.475       .  S
C512        C513   1.410       .  A
C513       C1122   1.484       .  S
C513        C514   1.413       .  A
C514       C1298   1.473       .  S
C514        C515   1.413       .  A
C515       C1061   1.484       .  S
C515        C516   1.413       .  A
C516       C1138   1.475       .  S
C517        C533   1.478       .  S
C517        C518   1.411       .  A
C517        C522   1.414       .  A
C518        C738   1.480       .  S
C518        C519   1.412       .  A
C519        C613   1.484       .  S
C519        C520   1.413       .  A
C520        C549   1.478       .  S
C520        C521   1.417       .  A
C521        C722   1.485       .  S
C521        C522   1.415       .  A
C522        C629   1.484       .  S
C523        C528   1.380       .  A
C523        C524   1.402       .  A
C523        O529   1.317       .  A
C524        H535   1.083       .  S
C524        C525   1.400       .  A
C525        C534   1.359       .  A
C525        C526   1.381       .  A
C526        C527   1.405       .  A
C526        O532   1.320       .  A
C527        H536   1.082       .  S
C527        C528   1.404       .  A
C528        C531   1.365       .  A
O529        C530   1.330       .  A
C530        C531   1.393       .  A
C531        H537   1.082       .  S
O532        C533   1.331       .  A
C533        C534   1.388       .  A
C534        H538   1.082       .  S
C539        C544   1.380       .  A
C539        C540   1.405       .  A
C539        O545   1.320       .  A
C540        H551   1.082       .  S
C540        C541   1.403       .  A
C541        C550   1.362       .  A
C541        C542   1.380       .  A
C542        C543   1.403       .  A
C542        O548   1.318       .  A
C543        H552   1.082       .  S
C543        C544   1.402       .  A
C544        C547   1.361       .  A
O545        C546   1.332       .  A
C546        C547   1.393       .  A
C547        H553   1.083       .  S
O548        C549   1.330       .  A
C549        C550   1.391       .  A
C550        H554   1.082       .  S
C555        C560   1.380       .  A
C555        C556   1.406       .  A
C555        O561   1.321       .  A
C556        H567   1.082       .  S
C556        C557   1.405       .  A
C557        C566   1.364       .  A
C557        C558   1.381       .  A
C558        C559   1.401       .  A
C558        O564   1.317       .  A
C559        H568   1.082       .  S
C559        C560   1.400       .  A
C560        C563   1.359       .  A
O561        C562   1.332       .  A
C562        C563   1.389       .  A
C563        H569   1.082       .  S
O564        C565   1.329       .  A
C565        C566   1.393       .  A
C566        H570   1.082       .  S
C571        C576   1.380       .  A
C571        C572   1.402       .  A
C571        O577   1.315       .  A
C572        H583   1.082       .  S
C572        C573   1.400       .  A
C573        C582   1.362       .  A
C573        C574   1.381       .  A
C574        C575   1.402       .  A
C574        O580   1.315       .  A
C575        H584   1.082       .  S
C575        C576   1.401       .  A
C576        C579   1.363       .  A
O577        C578   1.330       .  A
C578        C579   1.391       .  A
C579        H585   1.082       .  S
O580        C581   1.330       .  A
C581        C582   1.388       .  A
C582        H586   1.082       .  S
C587        C592   1.381       .  A
C587        C588   1.406   1_655  A
C587        O593   1.321   1_655  A
C588        H599   1.082       .  S
C588        C589   1.405   1_455  A
C589        C598   1.365       .  A
C589        C590   1.380       .  A
C590        C591   1.402       .  A
C590        O596   1.318       .  A
C591        H600   1.082       .  S
C591        C592   1.401       .  A
C592        C595   1.360       .  A
O593        C594   1.332   1_455  A
C594        C595   1.389       .  A
C595        H601   1.082       .  S
O596        C597   1.331       .  A
C597        C598   1.393       .  A
C598        H602   1.082   1_655  S
C603        C608   1.380       .  A
C603        C604   1.405       .  A
C603        O609   1.321       .  A
C604        H615   1.083       .  S
C604        C605   1.404       .  A
C605        C614   1.363       .  A
C605        C606   1.380       .  A
C606        C607   1.403       .  A
C606        O612   1.319       .  A
C607        H616   1.082       .  S
C607        C608   1.403       .  A
C608        C611   1.362       .  A
O609        C610   1.332       .  A
C610        C611   1.392       .  A
C611        H617   1.083       .  S
O612        C613   1.330       .  A
C613        C614   1.391       .  A
C614        H618   1.082       .  S
C619        C624   1.380       .  A
C619        C620   1.404       .  A
C619        O625   1.319       .  A
C620        H631   1.083       .  S
C620        C621   1.402       .  A
C621        C630   1.362       .  A
C621        C622   1.380       .  A
C622        C623   1.406       .  A
C622        O628   1.321       .  A
C623        H632   1.082       .  S
C623        C624   1.405       .  A
C624        C627   1.366       .  A
O625        C626   1.332       .  A
C626        C627   1.394       .  A
C627        H633   1.083       .  S
O628        C629   1.331       .  A
C629        C630   1.390       .  A
C630        H634   1.082       .  S
C635        C640   1.380       .  A
C635        C636   1.404       .  A
C635        O641   1.321   1_565  A
C636        H647   1.082   1_565  S
C636        C637   1.404       .  A
C637        C646   1.361       .  A
C637        C638   1.381       .  A
C638        C639   1.403       .  A
C638        O644   1.320       .  A
C639        H648   1.082       .  S
C639        C640   1.403       .  A
C640        C643   1.360       .  A
O641        C642   1.332       .  A
C642        C643   1.392   1_545  A
C643        H649   1.083       .  S
O644        C645   1.331       .  A
C645        C646   1.392       .  A
C646        H650   1.082       .  S
C651        C656   1.380       .  A
C651        C652   1.405       .  A
C651        O657   1.322       .  A
C652        H663   1.082       .  S
C652        C653   1.405       .  A
C653        C662   1.363       .  A
C653        C654   1.380       .  A
C654        C655   1.405       .  A
C654        O660   1.322       .  A
C655        H664   1.082       .  S
C655        C656   1.405       .  A
C656        C659   1.362       .  A
O657        C658   1.332       .  A
C658        C659   1.393       .  A
C659        H665   1.082   1_545  S
O660        C661   1.332       .  A
C661        C662   1.393       .  A
C662        H666   1.083       .  S
C667        C672   1.380       .  A
C667        C668   1.405       .  A
C667        O673   1.320       .  A
C668        H679   1.082       .  S
C668        C669   1.404       .  A
C669        C678   1.364       .  A
C669        C670   1.380       .  A
C670        C671   1.403       .  A
C670        O676   1.319       .  A
C671        H680   1.082   1_655  S
C671        C672   1.402       .  A
C672        C675   1.361   1_655  A
O673        C674   1.332       .  A
C674        C675   1.391   1_655  A
C675        H681   1.082       .  S
O676        C677   1.331       .  A
C677        C678   1.393       .  A
C678        H682   1.083       .  S
C683        C688   1.380       .  A
C683        C684   1.403       .  A
C683        O689   1.315       .  A
C684        H695   1.082       .  S
C684        C685   1.401       .  A
C685        C694   1.363   1_455  A
C685        C686   1.381       .  A
C686        C687   1.402       .  A
C686        O692   1.315       .  A
C687        H696   1.082       .  S
C687        C688   1.400       .  A
C688        C691   1.362       .  A
O689        C690   1.331       .  A
C690        C691   1.388       .  A
C691        H697   1.082       .  S
O692        C693   1.330   1_455  A
C693        C694   1.391       .  A
C694        H698   1.083       .  S
C699        C704   1.380       .  A
C699        C700   1.405       .  A
C699        O705   1.321   1_455  A
C700        H711   1.082   1_455  S
C700        C701   1.404       .  A
C701        C710   1.364       .  A
C701        C702   1.380       .  A
C702        C703   1.405       .  A
C702        O708   1.320       .  A
C703        H712   1.082       .  S
C703        C704   1.404       .  A
C704        C707   1.363       .  A
O705        C706   1.332       .  A
C706        C707   1.392   1_655  A
C707        H713   1.082       .  S
O708        C709   1.332       .  A
C709        C710   1.391       .  A
C710        H714   1.082       .  S
C715        C720   1.380       .  A
C715        C716   1.404       .  A
C715        O721   1.320       .  A
C716        H727   1.082       .  S
C716        C717   1.404       .  A
C717        C726   1.364       .  A
C717        C718   1.380       .  A
C718        C719   1.405       .  A
C718        O724   1.320       .  A
C719        H728   1.082       .  S
C719        C720   1.404       .  A
C720        C723   1.363       .  A
O721        C722   1.331       .  A
C722        C723   1.392       .  A
C723        H729   1.082       .  S
O724        C725   1.332       .  A
C725        C726   1.393       .  A
C726        H730   1.083       .  S
C731        C736   1.381       .  A
C731        C732   1.404       .  A
C731        O737   1.319       .  A
C732        H743   1.083       .  S
C732        C733   1.403       .  A
C733        C742   1.363       .  A
C733        C734   1.380       .  A
C734        C735   1.403       .  A
C734        O740   1.318       .  A
C735        H744   1.083       .  S
C735        C736   1.402       .  A
C736        C739   1.361       .  A
O737        C738   1.330       .  A
C738        C739   1.390       .  A
C739        H745   1.082       .  S
O740        C741   1.331       .  A
C741        C742   1.392       .  A
C742        H746   1.083       .  S
C747        C752   1.380       .  A
C747        C748   1.403       .  A
C747        O753   1.316       .  A
C748        H759   1.082       .  S
C748        C749   1.402       .  A
C749        C758   1.363       .  A
C749        C750   1.380       .  A
C750        C751   1.406       .  A
C750        O756   1.319   1_565  A
C751        H760   1.082   1_565  S
C751        C752   1.404       .  A
C752        C755   1.366       .  A
O753        C754   1.331       .  A
C754        C755   1.391       .  A
C755        H761   1.082       .  S
O756        C757   1.332       .  A
C757        C758   1.391   1_545  A
C758        H762   1.083       .  S
C763        C768   1.380       .  A
C763        C764   1.403       .  A
C763        O769   1.318       .  A
C764        H775   1.082       .  S
C764        C765   1.402       .  A
C765        C774   1.361       .  A
C765        C766   1.381       .  A
C766        C767   1.402       .  A
C766        O772   1.317       .  A
C767        H776   1.082       .  S
C767        C768   1.401       .  A
C768        C771   1.360       .  A
O769        C770   1.331       .  A
C770        C771   1.391       .  A
C771        H777   1.083       .  S
O772        C773   1.329       .  A
C773        C774   1.389       .  A
C774        H778   1.082       .  S
C779        C784   1.381       .  A
C779        C780   1.399       .  A
C779        O785   1.315       .  A
C780        H791   1.082       .  S
C780        C781   1.399       .  A
C781        C790   1.357       .  A
C781        C782   1.380       .  A
C782        C783   1.408   1_545  A
C782        O788   1.324       .  A
C783        H792   1.082       .  S
C783        C784   1.408   1_565  A
C784        C787   1.367   1_545  A
O785        C786   1.328       .  A
C786        C787   1.393   1_545  A
C787        H793   1.082       .  S
O788        C789   1.334       .  A
C789        C790   1.390       .  A
C790        H794   1.083       .  S
C795        C800   1.380       .  A
C795        C796   1.405       .  A
C795        O801   1.319       .  A
C796        H807   1.082       .  S
C796        C797   1.403       .  A
C797        C806   1.365       .  A
C797        C798   1.380       .  A
C798        C799   1.401       .  A
C798        O804   1.315       .  A
C799        H808   1.082       .  S
C799        C800   1.400       .  A
C800        C803   1.361       .  A
O801        C802   1.332       .  A
C802        C803   1.391       .  A
C803        H809   1.083       .  S
O804        C805   1.330       .  A
C805        C806   1.391       .  A
C806        H810   1.082       .  S
C811        C816   1.380   1_554  A
C811        C812   1.402       .  A
C811        O817   1.318       .  A
C812        H823   1.083   1_655  S
C812        C813   1.401       .  A
C813        C822   1.361   1_655  A
C813        C814   1.381   1_554  A
C814        C815   1.405       .  A
C814        O820   1.319       .  A
C815        H824   1.083       .  S
C815        C816   1.405       .  A
C816        C819   1.365       .  A
O817        C818   1.330   1_554  A
C818        C819   1.394       .  A
C819        H825   1.083       .  S
O820        C821   1.331       .  A
C821        C822   1.389   1_656  A
C822        H826   1.082       .  S
C827        C832   1.380   1_554  A
C827        C828   1.405       .  A
C827        O833   1.322       .  A
C828        H839   1.082       .  S
C828        C829   1.404       .  A
C829        C838   1.362       .  A
C829        C830   1.381   1_554  A
C830        C831   1.402       .  A
C830        O836   1.319       .  A
C831        H840   1.083       .  S
C831        C832   1.403       .  A
C832        C835   1.359       .  A
O833        C834   1.332       .  A
C834        C835   1.392   1_554  A
C835        H841   1.083       .  S
O836        C837   1.330   1_556  A
C837        C838   1.390       .  A
C838        H842   1.082       .  S
C843        C848   1.380       .  A
C843        C844   1.402       .  A
C843        O849   1.318       .  A
C844        H855   1.082       .  S
C844        C845   1.401       .  A
C845        C854   1.360       .  A
C845        C846   1.380       .  A
C846        C847   1.408       .  A
C846        O852   1.323       .  A
C847        H856   1.082       .  S
C847        C848   1.408       .  A
C848        C851   1.368       .  A
O849        C850   1.330       .  A
C850        C851   1.395       .  A
C851        H857   1.082       .  S
O852        C853   1.334       .  A
C853        C854   1.390       .  A
C854        H858   1.082       .  S
C859        C864   1.380       .  A
C859        C860   1.405       .  A
C859        O865   1.320       .  A
C860        H871   1.082       .  S
C860        C861   1.404       .  A
C861        C870   1.364       .  A
C861        C862   1.380       .  A
C862        C863   1.405       .  A
C862        O868   1.320       .  A
C863        H872   1.082       .  S
C863        C864   1.405       .  A
C864        C867   1.364       .  A
O865        C866   1.332       .  A
C866        C867   1.393       .  A
C867        H873   1.083       .  S
O868        C869   1.332       .  A
C869        C870   1.391       .  A
C870        H874   1.082       .  S
C875        C880   1.380   1_556  A
C875        C876   1.401       .  A
C875        O881   1.317       .  A
C876        H887   1.083       .  S
C876        C877   1.400       .  A
C877        C886   1.359       .  A
C877        C878   1.380   1_556  A
C878        C879   1.407       .  A
C878        O884   1.322       .  A
C879        H888   1.083       .  S
C879        C880   1.406       .  A
C880        C883   1.365       .  A
O881        C882   1.329   1_556  A
C882        C883   1.393       .  A
C883        H889   1.082       .  S
O884        C885   1.333       .  A
C885        C886   1.390   1_554  A
C886        H890   1.083       .  S
C891        C896   1.381   1_556  A
C891        C892   1.405       .  A
C891        O897   1.320       .  A
C892        H903   1.082       .  S
C892        C893   1.404       .  A
C893        C902   1.363       .  A
C893        C894   1.381   1_556  A
C894        C895   1.399       .  A
C894        O900   1.316       .  A
C895        H904   1.082       .  S
C895        C896   1.399       .  A
C896        C899   1.357       .  A
O897        C898   1.332       .  A
C898        C899   1.390   1_556  A
C899        H905   1.083       .  S
O900        C901   1.328   1_554  A
C901        C902   1.391       .  A
C902        H906   1.082       .  S
C907        C912   1.380       .  A
C907        C908   1.405       .  A
C907        O913   1.318       .  A
C908        H919   1.082       .  S
C908        C909   1.403       .  A
C909        C918   1.365       .  A
C909        C910   1.380       .  A
C910        C911   1.401       .  A
C910        O916   1.314       .  A
C911        H920   1.082       .  S
C911        C912   1.399       .  A
C912        C915   1.361       .  A
O913        C914   1.331       .  A
C914        C915   1.390       .  A
C915        H921   1.083       .  S
O916        C917   1.330       .  A
C917        C918   1.390       .  A
C918        H922   1.082       .  S
C923        C928   1.381       .  A
C923        C924   1.403       .  A
C923        O929   1.320       .  A
C924        H935   1.082       .  S
C924        C925   1.402       .  A
C925        C934   1.360       .  A
C925        C926   1.381       .  A
C926        C927   1.400       .  A
C926        O932   1.317       .  A
C927        H936   1.082       .  S
C927        C928   1.401       .  A
C928        C931   1.357       .  A
O929        C930   1.330       .  A
C930        C931   1.391       .  A
C931        H937   1.083       .  S
O932        C933   1.328       .  A
C933        C934   1.389       .  A
C934        H938   1.082       .  S
C939        C944   1.380   1_556  A
C939        C940   1.408   1_545  A
C939        O945   1.322       .  A
C940        H951   1.082       .  S
C940        C941   1.407       .  A
C941        C950   1.367       .  A
C941        C942   1.380   1_566  A
C942        C943   1.402       .  A
C942        O948   1.317       .  A
C943        H952   1.082       .  S
C943        C944   1.401       .  A
C944        C947   1.360       .  A
O945        C946   1.334       .  A
C946        C947   1.391   1_556  A
C947        H953   1.083       .  S
O948        C949   1.330   1_544  A
C949        C950   1.392       .  A
C950        H954   1.082       .  S
C955        C960   1.380   1_554  A
C955        C956   1.404       .  A
C955        O961   1.320       .  A
C956        H967   1.082       .  S
C956        C957   1.404       .  A
C957        C966   1.364       .  A
C957        C958   1.380   1_554  A
C958        C959   1.402       .  A
C958        O964   1.317       .  A
C959        H968   1.083       .  S
C959        C960   1.401       .  A
C960        C963   1.360   1_565  A
O961        C962   1.331   1_565  A
C962        C963   1.388   1_554  A
C963        H969   1.082       .  S
O964        C965   1.331   1_556  A
C965        C966   1.392       .  A
C966        H970   1.082       .  S
C971        C976   1.380       .  A
C971        C972   1.406       .  A
C971        O977   1.322       .  A
C972        H983   1.082       .  S
C972        C973   1.405       .  A
C973        C982   1.364       .  A
C973        C974   1.381       .  A
C974        C975   1.401       .  A
C974        O980   1.317       .  A
C975        H984   1.082       .  S
C975        C976   1.401       .  A
C976        C979   1.358       .  A
O977        C978   1.333       .  A
C978        C979   1.390       .  A
C979        H985   1.083       .  S
O980        C981   1.329       .  A
C981        C982   1.391       .  A
C982        H986   1.082       .  S
C987        C992   1.380       .  A
C987        C988   1.404       .  A
C987        O993   1.317       .  A
C988        H999   1.082       .  S
C988        C989   1.402       .  A
C989        C998   1.364       .  A
C989        C990   1.380       .  A
C990        C991   1.404       .  A
C990        O996   1.317       .  A
C991       H1000   1.082       .  S
C991        C992   1.402       .  A
C992        C995   1.364       .  A
O993        C994   1.330       .  A
C994        C995   1.389       .  A
C995       H1001   1.082       .  S
O996        C997   1.331       .  A
C997        C998   1.392       .  A
C998       H1002   1.082       .  S
C1003      C1008   1.380       .  A
C1003      C1004   1.404       .  A
C1003      O1009   1.320       .  A
C1004      H1015   1.082       .  S
C1004      C1005   1.404       .  A
C1005      C1014   1.363       .  A
C1005      C1006   1.380       .  A
C1006      C1007   1.405       .  A
C1006      O1012   1.320       .  A
C1007      H1016   1.082       .  S
C1007      C1008   1.404       .  A
C1008      C1011   1.362       .  A
O1009      C1010   1.331       .  A
C1010      C1011   1.391       .  A
C1011      H1017   1.082       .  S
O1012      C1013   1.332       .  A
C1013      C1014   1.393       .  A
C1014      H1018   1.082       .  S
C1019      C1024   1.381       .  A
C1019      C1020   1.404       .  A
C1019      O1025   1.318       .  A
C1020      H1031   1.082       .  S
C1020      C1021   1.403       .  A
C1021      C1030   1.364       .  A
C1021      C1022   1.381       .  A
C1022      C1023   1.401       .  A
C1022      O1028   1.316       .  A
C1023      H1032   1.083       .  S
C1023      C1024   1.400       .  A
C1024      C1027   1.360       .  A
O1025      C1026   1.330       .  A
C1026      C1027   1.388       .  A
C1027      H1033   1.082       .  S
O1028      C1029   1.330       .  A
C1029      C1030   1.392       .  A
C1030      H1034   1.083       .  S
C1035      C1040   1.381       .  A
C1035      C1036   1.403       .  A
C1035      O1041   1.318       .  A
C1036      H1047   1.083       .  S
C1036      C1037   1.402       .  A
C1037      C1046   1.361       .  A
C1037      C1038   1.381       .  A
C1038      C1039   1.402       .  A
C1038      O1044   1.317       .  A
C1039      H1048   1.083       .  S
C1039      C1040   1.401       .  A
C1040      C1043   1.360       .  A
O1041      C1042   1.329       .  A
C1042      C1043   1.388       .  A
C1043      H1049   1.082       .  S
O1044      C1045   1.330       .  A
C1045      C1046   1.391       .  A
C1046      H1050   1.083       .  S
C1051      C1056   1.380       .  A
C1051      C1052   1.405       .  A
C1051      O1057   1.321       .  A
C1052      H1063   1.083       .  S
C1052      C1053   1.404       .  A
C1053      C1062   1.363       .  A
C1053      C1054   1.380       .  A
C1054      C1055   1.405       .  A
C1054      O1060   1.321       .  A
C1055      H1064   1.082       .  S
C1055      C1056   1.405       .  A
C1056      C1059   1.365       .  A
O1057      C1058   1.333       .  A
C1058      C1059   1.393       .  A
C1059      H1065   1.083       .  S
O1060      C1061   1.331       .  A
C1061      C1062   1.391       .  A
C1062      H1066   1.082       .  S
C1067      C1072   1.381       .  A
C1067      C1068   1.398       .  A
C1067      O1073   1.315       .  A
C1068      H1079   1.082       .  S
C1068      C1069   1.398       .  A
C1069      C1078   1.356       .  A
C1069      C1070   1.380       .  A
C1070      C1071   1.410   1_565  A
C1070      O1076   1.324       .  A
C1071      H1080   1.082       .  S
C1071      C1072   1.409   1_545  A
C1072      C1075   1.369   1_565  A
O1073      C1074   1.327       .  A
C1074      C1075   1.394   1_565  A
C1075      H1081   1.082       .  S
O1076      C1077   1.335       .  A
C1077      C1078   1.389       .  A
C1078      H1082   1.083       .  S
C1083      C1088   1.381       .  A
C1083      C1084   1.405       .  A
C1083      O1089   1.317       .  A
C1084      H1095   1.082       .  S
C1084      C1085   1.403       .  A
C1085      C1094   1.365       .  A
C1085      C1086   1.380       .  A
C1086      C1087   1.400       .  A
C1086      O1092   1.313       .  A
C1087      H1096   1.082       .  S
C1087      C1088   1.399       .  A
C1088      C1091   1.360       .  A
O1089      C1090   1.331       .  A
C1090      C1091   1.389       .  A
C1091      H1097   1.083       .  S
O1092      C1093   1.329       .  A
C1093      C1094   1.391       .  A
C1094      H1098   1.082       .  S
C1099      C1104   1.381       .  A
C1099      C1100   1.401       .  A
C1099      O1105   1.316       .  A
C1100      H1111   1.082       .  S
C1100      C1101   1.400       .  A
C1101      C1110   1.358       .  A
C1101      C1102   1.381       .  A
C1102      C1103   1.402       .  A
C1102      O1108   1.317       .  A
C1103      H1112   1.083       .  S
C1103      C1104   1.402       .  A
C1104      C1107   1.360       .  A
O1105      C1106   1.329       .  A
C1106      C1107   1.392       .  A
C1107      H1113   1.083       .  S
O1108      C1109   1.329       .  A
C1109      C1110   1.388       .  A
C1110      H1114   1.082       .  S
C1115      C1120   1.381       .  A
C1115      C1116   1.402       .  A
C1115      O1121   1.319       .  A
C1116      H1127   1.083       .  S
C1116      C1117   1.403       .  A
C1117      C1126   1.360       .  A
C1117      C1118   1.380       .  A
C1118      C1119   1.406       .  A
C1118      O1124   1.323       .  A
C1119      H1128   1.082       .  S
C1119      C1120   1.405       .  A
C1120      C1123   1.364       .  A
O1121      C1122   1.330       .  A
C1122      C1123   1.391       .  A
C1123      H1129   1.082       .  S
O1124      C1125   1.333       .  A
C1125      C1126   1.392       .  A
C1126      H1130   1.083       .  S
C1131      C1136   1.381       .  A
C1131      C1132   1.400       .  A
C1131      O1137   1.317       .  A
C1132      H1143   1.083       .  S
C1132      C1133   1.401       .  A
C1133      C1142   1.358       .  A
C1133      C1134   1.381       .  A
C1134      C1135   1.404       .  A
C1134      O1140   1.320       .  A
C1135      H1144   1.082       .  S
C1135      C1136   1.403       .  A
C1136      C1139   1.361       .  A
O1137      C1138   1.328       .  A
C1138      C1139   1.389       .  A
C1139      H1145   1.082       .  S
O1140      C1141   1.331       .  A
C1141      C1142   1.391       .  A
C1142      H1146   1.083       .  S
C1147      C1152   1.381       .  A
C1147      C1148   1.402       .  A
C1147      O1153   1.317       .  A
C1148      H1159   1.082   1_455  S
C1148      C1149   1.402       .  A
C1149      C1158   1.361       .  A
C1149      C1150   1.381       .  A
C1150      C1151   1.402       .  A
C1150      O1156   1.317       .  A
C1151      H1160   1.083       .  S
C1151      C1152   1.401       .  A
C1152      C1155   1.361       .  A
O1153      C1154   1.329       .  A
C1154      C1155   1.390       .  A
C1155      H1161   1.082       .  S
O1156      C1157   1.330       .  A
C1157      C1158   1.391       .  A
C1158      H1162   1.083       .  S
C1163      C1168   1.380       .  A
C1163      C1164   1.407       .  A
C1163      O1169   1.322       .  A
C1164      H1175   1.082       .  S
C1164      C1165   1.406       .  A
C1165      C1174   1.365       .  A
C1165      C1166   1.380       .  A
C1166      C1167   1.403       .  A
C1166      O1172   1.319       .  A
C1167      H1176   1.082       .  S
C1167      C1168   1.403       .  A
C1168      C1171   1.362       .  A
O1169      C1170   1.333       .  A
C1170      C1171   1.391       .  A
C1171      H1177   1.082       .  S
O1172      C1173   1.331       .  A
C1173      C1174   1.393       .  A
C1174      H1178   1.082       .  S
C1179      C1184   1.381       .  A
C1179      C1180   1.403       .  A
C1179      O1185   1.319   1_655  A
C1180      H1191   1.082   1_655  S
C1180      C1181   1.402       .  A
C1181      C1190   1.361       .  A
C1181      C1182   1.380       .  A
C1182      C1183   1.404       .  A
C1182      O1188   1.319       .  A
C1183      H1192   1.082       .  S
C1183      C1184   1.404       .  A
C1184      C1187   1.362       .  A
O1185      C1186   1.330       .  A
C1186      C1187   1.393   1_455  A
C1187      H1193   1.083       .  S
O1188      C1189   1.331       .  A
C1189      C1190   1.389       .  A
C1190      H1194   1.082       .  S
C1195      C1200   1.380       .  A
C1195      C1196   1.401       .  A
C1195      O1201   1.315       .  A
C1196      H1207   1.083       .  S
C1196      C1197   1.399       .  A
C1197      C1206   1.359       .  A
C1197      C1198   1.380       .  A
C1198      C1199   1.406       .  A
C1198      O1204   1.320       .  A
C1199      H1208   1.082       .  S
C1199      C1200   1.405       .  A
C1200      C1203   1.367       .  A
O1201      C1202   1.329       .  A
C1202      C1203   1.393       .  A
C1203      H1209   1.082   1_655  S
O1204      C1205   1.332       .  A
C1205      C1206   1.390       .  A
C1206      H1210   1.083       .  S
C1211      C1216   1.380       .  A
C1211      C1212   1.403       .  A
C1211      O1217   1.319       .  A
C1212      H1223   1.082       .  S
C1212      C1213   1.402       .  A
C1213      C1222   1.361       .  A
C1213      C1214   1.380       .  A
C1214      C1215   1.406       .  A
C1214      O1220   1.321       .  A
C1215      H1224   1.082       .  S
C1215      C1216   1.405       .  A
C1216      C1219   1.365       .  A
O1217      C1218   1.331       .  A
C1218      C1219   1.393       .  A
C1219      H1225   1.082       .  S
O1220      C1221   1.332       .  A
C1221      C1222   1.391       .  A
C1222      H1226   1.082       .  S
C1227      C1232   1.381       .  A
C1227      C1228   1.402       .  A
C1227      O1233   1.320   1_545  A
C1228      H1239   1.082   1_545  S
C1228      C1229   1.402       .  A
C1229      C1238   1.359       .  A
C1229      C1230   1.381       .  A
C1230      C1231   1.401       .  A
C1230      O1236   1.318       .  A
C1231      H1240   1.082       .  S
C1231      C1232   1.401       .  A
C1232      C1235   1.357       .  A
O1233      C1234   1.331       .  A
C1234      C1235   1.392   1_565  A
C1235      H1241   1.083       .  S
O1236      C1237   1.329       .  A
C1237      C1238   1.389       .  A
C1238      H1242   1.082       .  S
C1243      C1248   1.381       .  A
C1243      C1244   1.400       .  A
C1243      O1249   1.316       .  A
C1244      H1255   1.082       .  S
C1244      C1245   1.399       .  A
C1245      C1254   1.356       .  A
C1245      C1246   1.381       .  A
C1246      C1247   1.404       .  A
C1246      O1252   1.320       .  A
C1247      H1256   1.082       .  S
C1247      C1248   1.404       .  A
C1248      C1251   1.362       .  A
O1249      C1250   1.329       .  A
C1250      C1251   1.393       .  A
C1251      H1257   1.083       .  S
O1252      C1253   1.330       .  A
C1253      C1254   1.388       .  A
C1254      H1258   1.083       .  S
C1259      C1264   1.380       .  A
C1259      C1260   1.404       .  A
C1259      O1265   1.318       .  A
C1260      H1271   1.082       .  S
C1260      C1261   1.402       .  A
C1261      C1270   1.364       .  A
C1261      C1262   1.380       .  A
C1262      C1263   1.403       .  A
C1262      O1268   1.316       .  A
C1263      H1272   1.082       .  S
C1263      C1264   1.402       .  A
C1264      C1267   1.364       .  A
O1265      C1266   1.331       .  A
C1266      C1267   1.391       .  A
C1267      H1273   1.082       .  S
O1268      C1269   1.330       .  A
C1269      C1270   1.390       .  A
C1270      H1274   1.082       .  S
C1275      C1280   1.380   1_545  A
C1275      C1276   1.404       .  A
C1275      O1281   1.318       .  A
C1276      H1287   1.082       .  S
C1276      C1277   1.402       .  A
C1277      C1286   1.362       .  A
C1277      C1278   1.380       .  A
C1278      C1279   1.405       .  A
C1278      O1284   1.320       .  A
C1279      H1288   1.082   1_545  S
C1279      C1280   1.404   1_545  A
C1280      C1283   1.365       .  A
O1281      C1282   1.331   1_545  A
C1282      C1283   1.392       .  A
C1283      H1289   1.082       .  S
O1284      C1285   1.332       .  A
C1285      C1286   1.392       .  A
C1286      H1290   1.082       .  S
C1291      C1296   1.381       .  A
C1291      C1292   1.400       .  A
C1291      O1297   1.315       .  A
C1292      H1303   1.082       .  S
C1292      C1293   1.399       .  A
C1293      C1302   1.357       .  A
C1293      C1294   1.380       .  A
C1294      C1295   1.405       .  A
C1294      O1300   1.320       .  A
C1295      H1304   1.082       .  S
C1295      C1296   1.404       .  A
C1296      C1299   1.363       .  A
O1297      C1298   1.328       .  A
C1298      C1299   1.390       .  A
C1299      H1305   1.082       .  S
O1300      C1301   1.332       .  A
C1301      C1302   1.390       .  A
C1302      H1306   1.083       .  S
C1307      C1312   1.381       .  A
C1307      C1308   1.404       .  A
C1307      O1313   1.320       .  A
C1308      H1319   1.082       .  S
C1308      C1309   1.404       .  A
C1309      C1318   1.364       .  A
C1309      C1310   1.380       .  A
C1310      C1311   1.403       .  A
C1310      O1316   1.319       .  A
C1311      H1320   1.083       .  S
C1311      C1312   1.402       .  A
C1312      C1315   1.361       .  A
O1313      C1314   1.330       .  A
C1314      C1315   1.389       .  A
C1315      H1321   1.082       .  S
O1316      C1317   1.331       .  A
C1317      C1318   1.392       .  A
C1318      H1322   1.082       .  S
C1323      C1328   1.380       .  A
C1323      C1324   1.407       .  A
C1323      O1329   1.322       .  A
C1324      H1335   1.082   1_455  S
C1324      C1325   1.406       .  A
C1325      C1334   1.366   1_455  A
C1325      C1326   1.380       .  A
C1326      C1327   1.403       .  A
C1326      O1332   1.319       .  A
C1327      H1336   1.082       .  S
C1327      C1328   1.403       .  A
C1328      C1331   1.362       .  A
O1329      C1330   1.333       .  A
C1330      C1331   1.393       .  A
C1331      H1337   1.083       .  S
O1332      C1333   1.330       .  A
C1333      C1334   1.392   1_455  A
C1334      H1338   1.082       .  S
C1339      C1344   1.380       .  A
C1339      C1340   1.402       .  A
C1339      O1345   1.315       .  A
C1340      H1351   1.082       .  S
C1340      C1341   1.400       .  A
C1341      C1350   1.363       .  A
C1341      C1342   1.380       .  A
C1342      C1343   1.403       .  A
C1342      O1348   1.315       .  A
C1343      H1352   1.082       .  S
C1343      C1344   1.401       .  A
C1344      C1347   1.363       .  A
O1345      C1346   1.330       .  A
C1346      C1347   1.389       .  A
C1347      H1353   1.082       .  S
O1348      C1349   1.331       .  A
C1349      C1350   1.390       .  A
C1350      H1354   1.082       .  S
C1355      C1360   1.380       .  A
C1355      C1356   1.403       .  A
C1355      O1361   1.316       .  A
C1356      H1367   1.082       .  S
C1356      C1357   1.402       .  A
C1357      C1366   1.363       .  A
C1357      C1358   1.380       .  A
C1358      C1359   1.404       .  A
C1358      O1364   1.317   1_655  A
C1359      H1368   1.082   1_655  S
C1359      C1360   1.402       .  A
C1360      C1363   1.363       .  A
O1361      C1362   1.331       .  A
C1362      C1363   1.390       .  A
C1363      H1369   1.082       .  S
O1364      C1365   1.331       .  A
C1365      C1366   1.391   1_455  A
C1366      H1370   1.083       .  S
C1371      C1376   1.380       .  A
C1371      C1372   1.402       .  A
C1371      O1377   1.317       .  A
C1372      H1383   1.083       .  S
C1372      C1373   1.401       .  A
C1373      C1382   1.361       .  A
C1373      C1374   1.380       .  A
C1374      C1375   1.406       .  A
C1374      O1380   1.320       .  A
C1375      H1384   1.082       .  S
C1375      C1376   1.405       .  A
C1376      C1379   1.366       .  A
O1377      C1378   1.330       .  A
C1378      C1379   1.393       .  A
C1379      H1385   1.082       .  S
O1380      C1381   1.332       .  A
C1381      C1382   1.390       .  A
C1382      H1386   1.083       .  S
