geometry optimzed in LAMMPS
_audit_creation_date              2020-11-30 
_audit_creation_method            'lammps2cif' 
_symmetry_space_group_name_H-M    'P1' 
_symmetry_Int_Tables_number       1 
_symmetry_cell_setting            triclinic 
loop_ 
_symmetry_equiv_pos_as_xyz 
  x,y,z 
_cell_length_a                    48.43529575 
_cell_length_b                    47.975803037835355 
_cell_length_c                    48.458557028613754 
_cell_angle_alpha                 89.96641594456773 
_cell_angle_beta                  89.93914720931241 
_cell_angle_gamma                 90.00570511906905 
loop_ 
_atom_site_label 
_atom_site_type_symbol 
_atom_site_fract_x 
_atom_site_fract_y 
_atom_site_fract_z 
_atom_site_charge 
C1          C  0.83991524  0.52705968  0.84274158     0.02500
C2          C  0.85760588  0.51196468  0.82508785     0.02500
C3          C  0.85627185  0.48263601  0.82423929     0.02500
C4          C  0.83718439  0.46831140  0.84108785     0.02500
C5          C  0.82096133  0.48327431  0.86031289     0.02500
C6          C  0.82265960  0.51272351  0.86154940     0.02500
C7          C  0.75477035  0.23477033  0.78852327     0.80500
N8          N  0.76867841  0.22405611  0.76659043    -0.77800
C9          C  0.79274449  0.23567481  0.75787873     0.82900
N10         N  0.80235126  0.25868872  0.77099890    -0.77800
C11         C  0.78863382  0.27008340  0.79265777     0.83000
N12         N  0.76480616  0.25795326  0.80119492    -0.79500
C13         C  0.55734624  0.19662653  0.83662474     0.02500
C14         C  0.54152749  0.21338848  0.85467655     0.02500
C15         C  0.51237525  0.21240940  0.85344695     0.02500
C16         C  0.49926726  0.19474558  0.83406333     0.02500
C17         C  0.51516266  0.17599906  0.81808694     0.02500
C18         C  0.54421056  0.17733851  0.81893549     0.02500
C19         C  0.23465079  0.53005634  0.83081249     0.02500
C20         C  0.25210215  0.51517760  0.84906090     0.02500
C21         C  0.25264966  0.48574442  0.84838314     0.02500
C22         C  0.23557846  0.47129788  0.82959414     0.02500
C23         C  0.21679566  0.48608869  0.81271304     0.02500
C24         C  0.21637464  0.51558455  0.81306882     0.02500
C25         C  0.26698459  0.23433652  0.76101318     0.80500
N26         N  0.25533356  0.25703544  0.77323998    -0.77800
C27         C  0.26550675  0.26778238  0.79714959     0.82900
N28         N  0.28776530  0.25537424  0.80875662    -0.77800
C29         C  0.29969643  0.23260996  0.79721165     0.83000
N30         N  0.28950495  0.22254962  0.77305589    -0.79500
C31         C  0.56683439  0.81193971  0.84232232     0.02500
C32         C  0.55229578  0.79303093  0.85926145     0.02500
C33         C  0.52317098  0.79167747  0.85826503     0.02500
C34         C  0.50858971  0.80970197  0.84031871     0.02500
C35         C  0.52309561  0.83007887  0.82488191     0.02500
C36         C  0.55227031  0.83139187  0.82603179     0.02500
C37         C  0.31027760  0.76474845  0.79779781     0.80500
N38         N  0.29791798  0.74223942  0.80946174    -0.77800
C39         C  0.27440012  0.73138874  0.79880632     0.82900
N40         N  0.26358671  0.74322814  0.77573764    -0.77800
C41         C  0.27570305  0.76553261  0.76332046     0.83000
N42         N  0.29930222  0.77596023  0.77445961    -0.79500
C43         C  0.55868236  0.81857877  0.21808611     0.02500
C44         C  0.54288570  0.83639493  0.23506555     0.02500
C45         C  0.51387928  0.83379180  0.23523148     0.02500
C46         C  0.50080140  0.81395988  0.21803414     0.02500
C47         C  0.51645194  0.79767796  0.19944566     0.02500
C48         C  0.54552465  0.79985286  0.19975642     0.02500
C49         C  0.22542548  0.79855114  0.56522140     0.02500
C50         C  0.24236402  0.81833682  0.55194719     0.02500
C51         C  0.24356982  0.81926423  0.52287569     0.02500
C52         C  0.22729917  0.80077853  0.50709398     0.02500
C53         C  0.20830633  0.78289167  0.52035306     0.02500
C54         C  0.20740917  0.78182825  0.54947131     0.02500
C55         C  0.27202947  0.73589757  0.27160241     0.80500
N56         N  0.26457468  0.74601820  0.29667292    -0.77800
C57         C  0.27712022  0.76877138  0.30777762     0.82900
N58         N  0.29779353  0.78132683  0.29344435    -0.77800
C59         C  0.30537646  0.77189197  0.26810664     0.83000
N60         N  0.29249261  0.74909590  0.25758129    -0.79500
C61         C  0.23428086  0.53516500  0.22920209     0.02500
C62         C  0.21486613  0.52192774  0.24660024     0.02500
C63         C  0.21436276  0.49254373  0.24836005     0.02500
C64         C  0.23383067  0.47644273  0.23355138     0.02500
C65         C  0.25128073  0.48952475  0.21405311     0.02500
C66         C  0.25165309  0.51896086  0.21208281     0.02500
C67         C  0.49839717  0.19143137  0.22721567     0.02500
C68         C  0.51249066  0.20782451  0.20732236     0.02500
C69         C  0.54165074  0.20922920  0.20787824     0.02500
C70         C  0.55637867  0.19337408  0.22750210     0.02500
C71         C  0.54255215  0.17370796  0.24418206     0.02500
C72         C  0.51344597  0.17303743  0.24444190     0.02500
C73         C  0.26675562  0.23669988  0.30701722     0.80500
N74         N  0.28923294  0.22488538  0.29503384    -0.77800
C75         C  0.30157660  0.23652421  0.27261843     0.82900
N76         N  0.29139182  0.26084360  0.26247154    -0.77800
C77         C  0.26887237  0.27322135  0.27400688     0.83000
N78         N  0.25693313  0.26106128  0.29641648    -0.79500
C79         C  0.21977980  0.19003743  0.56264306     0.02500
C80         C  0.23601263  0.17009823  0.54870272     0.02500
C81         C  0.23649329  0.16961681  0.51953919     0.02500
C82         C  0.22108330  0.18931472  0.50432162     0.02500
C83         C  0.20258667  0.20721645  0.51823000     0.02500
C84         C  0.20168558  0.20734962  0.54744974     0.02500
C85         C  0.83518459  0.52649156  0.22624935     0.02500
C86         C  0.85629028  0.51320109  0.24140813     0.02500
C87         C  0.85847994  0.48380853  0.24079860     0.02500
C88         C  0.83933253  0.46777182  0.22542721     0.02500
C89         C  0.82012885  0.48128957  0.20803461     0.02500
C90         C  0.81793339  0.51067649  0.20862690     0.02500
C91         C  0.83541791  0.20484516  0.55822735     0.02500
C92         C  0.81813522  0.18623621  0.54369604     0.02500
C93         C  0.81775824  0.18673953  0.51453177     0.02500
C94         C  0.83542167  0.20536295  0.50017383     0.02500
C95         C  0.85503420  0.22159579  0.51477365     0.02500
C96         C  0.85472473  0.22168190  0.54397873     0.02500
C97         C  0.75568167  0.23547322  0.26472535     0.80500
N98         N  0.76827182  0.25737697  0.25214401    -0.77800
C99         C  0.79068085  0.26985987  0.26351026     0.82900
N100        N  0.80039758  0.26004224  0.28804122    -0.77800
C101        C  0.78804448  0.23819455  0.30110572     0.83000
N102        N  0.76556139  0.22629490  0.28928195    -0.79500
C103        C  0.82975857  0.79683249  0.56099974     0.02500
C104        C  0.81226208  0.81570446  0.54676433     0.02500
C105        C  0.80993198  0.81397256  0.51762859     0.02500
C106        C  0.82550236  0.79371202  0.50301992     0.02500
C107        C  0.84556589  0.77759422  0.51701866     0.02500
C108        C  0.84722010  0.77855885  0.54608530     0.02500
C109        C  0.77662097  0.75664012  0.30427547     0.80500
N110        N  0.78741702  0.73306081  0.29310785    -0.77800
C111        C  0.77962610  0.72401749  0.26771113     0.82900
N112        N  0.76082128  0.73914116  0.25332887    -0.77800
C113        C  0.74987358  0.76291626  0.26399314     0.83000
N114        N  0.75765370  0.77127494  0.28962257    -0.79500
C115        C  0.79381686  0.76248511  0.76216162     0.80500
N116        N  0.77240719  0.77389549  0.77633540    -0.77800
C117        C  0.76267840  0.76213826  0.80000102     0.82900
N118        N  0.77496798  0.73851808  0.80941037    -0.77800
C119        C  0.79649916  0.72658552  0.79574218     0.83000
N120        N  0.80551620  0.73873096  0.77207626    -0.79500
O121        O  0.00159520  0.67493990  0.66919220    -0.74200
O122        O  0.05657611  0.63556167  0.71119045    -0.74200
O123        O  0.05758583  0.67448979  0.67071665    -0.74300
O124        O  0.00044046  0.63579835  0.70984248    -0.74300
O125        O  0.00109615  0.60227677  0.67816483    -0.74200
O126        O  0.05799229  0.64096049  0.63898566    -0.74200
O127        O  0.05715004  0.60210770  0.67952160    -0.74200
O128        O  0.00208652  0.64146853  0.63754765    -0.74300
Ni129      Ni  0.02897690  0.65638515  0.69136759     1.25400
Ni130      Ni  0.02956097  0.62051638  0.65745786     1.25400
C131        C  0.99288055  0.66494188  0.64622150     0.88000
C132        C  0.06621435  0.61234648  0.70221057     0.87900
C133        C  0.06719017  0.66409872  0.64831904     0.88000
C134        C  0.99154269  0.61240281  0.70066041     0.88100
O135        O  0.69159451  0.97524274  0.64824698    -0.74200
O136        O  0.65272773  0.03318075  0.68682359    -0.74200
O137        O  0.69141975  0.03162190  0.64589564    -0.74300
O138        O  0.65300266  0.97698003  0.68949926    -0.74300
O139        O  0.68639181  0.97868907  0.72087599    -0.74200
O140        O  0.72489472  0.03307922  0.67738977    -0.74200
O141        O  0.68612968  0.03492222  0.71820056    -0.74200
O142        O  0.72495175  0.97648727  0.67976634    -0.74300
Ni143      Ni  0.67102581  0.00419383  0.66649240     1.25400
Ni144      Ni  0.70679908  0.00584522  0.70013786     1.25400
C145        C  0.71478961  0.96634674  0.65746797     0.88000
C146        C  0.66269179  0.04335564  0.70916456     0.87900
C147        C  0.71473834  0.04100808  0.65428243     0.88000
C148        C  0.66309499  0.96915629  0.71273410     0.88100
O149        O  0.68154258  0.68885388  0.06338160    -0.74200
O150        O  0.72215550  0.64883718  0.00842036    -0.74200
O151        O  0.68367004  0.68976790  0.00761178    -0.74300
O152        O  0.71985713  0.64777440  0.06431078    -0.74300
O153        O  0.68644948  0.61597576  0.06260151    -0.74200
O154        O  0.65044069  0.65785397  0.00596234    -0.74200
O155        O  0.68889528  0.61687053  0.00679951    -0.74200
O156        O  0.64813367  0.65715151  0.06178957    -0.74300
Ni157      Ni  0.70299352  0.66992811  0.03600077     1.25400
Ni158      Ni  0.66729276  0.63583149  0.03421897     1.25400
C159        C  0.65815660  0.67974943  0.07176576     0.88000
C160        C  0.71225004  0.62626442  0.99843766     0.87900
C161        C  0.66097362  0.68079332  0.99741170     0.88000
C162        C  0.70913485  0.62493335  0.07286068     0.88100
O163        O  0.37267761  0.02300910  0.64861725    -0.74200
O164        O  0.41355210  0.96972439  0.69093098    -0.74200
O165        O  0.37311926  0.96686358  0.65242447    -0.74300
O166        O  0.41324227  0.02583387  0.68730869    -0.74300
O167        O  0.38115117  0.02823940  0.72018553    -0.74200
O168        O  0.34152508  0.96839376  0.68577107    -0.74200
O169        O  0.38209113  0.97208247  0.72441144    -0.74200
O170        O  0.34065962  0.02477624  0.68156606    -0.74300
Ni171      Ni  0.39425903  0.99630736  0.66864584     1.25400
Ni172      Ni  0.36020161  0.99844190  0.70415780     1.25400
C173        C  0.34972506  0.03242121  0.65786545     0.88000
C174        C  0.40464344  0.96214808  0.71468427     0.87900
C175        C  0.35064985  0.95788727  0.66323730     0.88000
C176        C  0.40396417  0.03660460  0.70966231     0.88100
O177        O  0.05915730  0.31686849  0.68031118    -0.74200
O178        O  0.00363496  0.36001623  0.71674959    -0.74200
O179        O  0.00335234  0.31915138  0.67843555    -0.74300
O180        O  0.05943307  0.35776065  0.71885487    -0.74300
O181        O  0.06176929  0.38995164  0.68583842    -0.74200
O182        O  0.00602051  0.35101530  0.64499619    -0.74200
O183        O  0.00598503  0.39203932  0.68352239    -0.74200
O184        O  0.06179512  0.34896001  0.64729416    -0.74300
Ni185      Ni  0.03132360  0.33733404  0.69977790     1.25400
Ni186      Ni  0.03399384  0.37163873  0.66422612     1.25400
C187        C  0.06961011  0.32566079  0.65764860     0.88000
C188        C  0.99564807  0.38314554  0.70619711     0.87900
C189        C  0.99536740  0.32879296  0.65512763     0.88000
C190        C  0.06993591  0.38017882  0.70906655     0.88100
O191        O  0.39934933  0.67640399  0.00209848    -0.74200
O192        O  0.35872988  0.63664196  0.05724133    -0.74200
O193        O  0.39917134  0.67593203  0.05777892    -0.74300
O194        O  0.35910502  0.63722787  0.00139281    -0.74300
O195        O  0.39082408  0.60375113  0.00133413    -0.74200
O196        O  0.43131418  0.64272728  0.05762496    -0.74200
O197        O  0.39076759  0.60335649  0.05747793    -0.74200
O198        O  0.43124231  0.64314383  0.00165488    -0.74300
Ni199      Ni  0.37796418  0.65768794  0.02966737     1.25400
Ni200      Ni  0.41215937  0.62201263  0.02953082     1.25400
C201        C  0.42214638  0.66659105  0.99281046     0.88000
C202        C  0.36780220  0.61326986  0.06626084     0.87900
C203        C  0.42218222  0.66613776  0.06652629     0.88000
C204        C  0.36827927  0.61404621  0.99195421     0.88100
O205        O  0.71321422  0.35221528  0.05903179    -0.74200
O206        O  0.66956628  0.31469336  0.00418850    -0.74200
O207        O  0.71143572  0.35197201  0.00298530    -0.74300
O208        O  0.67109930  0.31455845  0.06010300    -0.74300
O209        O  0.64080625  0.34930826  0.06118462    -0.74200
O210        O  0.68090682  0.38670830  0.00377349    -0.74200
O211        O  0.63892363  0.34926922  0.00537003    -0.74200
O212        O  0.68281576  0.38702428  0.05952680    -0.74300
Ni213      Ni  0.69242345  0.33213187  0.03158734     1.25400
Ni214      Ni  0.65979390  0.36930584  0.03252791     1.25400
C215        C  0.70542640  0.37612871  0.06796886     0.88000
C216        C  0.64691437  0.32569979  0.99588701     0.87900
C217        C  0.70273130  0.37540525  0.99382998     0.88000
C218        C  0.64898502  0.32547528  0.06988090     0.88100
O219        O  0.71809522  0.97117845  0.38671334    -0.74200
O220        O  0.68218295  0.02997087  0.34601093    -0.74200
O221        O  0.72169658  0.02806249  0.38594595    -0.74300
O222        O  0.67838254  0.97367046  0.34672243    -0.74300
O223        O  0.64616928  0.97613955  0.37928767    -0.74200
O224        O  0.68911703  0.03063358  0.41812894    -0.74200
O225        O  0.64964507  0.03216399  0.37848678    -0.74200
O226        O  0.68567503  0.97407663  0.41907569    -0.74300
Ni227      Ni  0.70133223  0.00059285  0.36524363     1.25400
Ni228      Ni  0.66659999  0.00331061  0.39991441     1.25400
C229        C  0.70783370  0.96294237  0.40977055     0.88000
C230        C  0.65972149  0.04045470  0.35544935     0.87900
C231        C  0.71238259  0.03877045  0.40835095     0.88000
C232        C  0.65462364  0.96650623  0.35613366     0.88100
O233        O  0.00253686  0.64526374  0.42177462    -0.74200
O234        O  0.06038361  0.61251926  0.37815577    -0.74200
O235        O  0.05864706  0.64871163  0.42130232    -0.74300
O236        O  0.00430096  0.60915239  0.37860696    -0.74300
O237        O  0.00180871  0.64513262  0.34975980    -0.74200
O238        O  0.05693013  0.68395393  0.39135583    -0.74200
O239        O  0.05774221  0.64776178  0.34851398    -0.74200
O240        O  0.00111081  0.68121671  0.39282933    -0.74300
Ni241      Ni  0.03157067  0.62762310  0.40101382     1.25400
Ni242      Ni  0.02930783  0.66573740  0.36958267     1.25400
C243        C  0.99251051  0.66892185  0.41473200     0.88000
C244        C  0.06867548  0.62468766  0.35604952     0.87900
C245        C  0.06660839  0.67294501  0.41338717     0.88000
C246        C  0.99378684  0.62083644  0.35723018     0.88100
O247        O  0.00761880  0.31531870  0.37958745    -0.74200
O248        O  0.06470721  0.35414204  0.34021043    -0.74200
O249        O  0.06353081  0.31323586  0.37905199    -0.74300
O250        O  0.00875759  0.35622773  0.34092409    -0.74300
O251        O  0.00998205  0.38804393  0.37437827    -0.74200
O252        O  0.06536787  0.34576372  0.41167792    -0.74200
O253        O  0.06551425  0.38641364  0.37330728    -0.74200
O254        O  0.00938474  0.34708114  0.41292320    -0.74300
Ni255      Ni  0.03609545  0.33355879  0.35874523     1.25400
Ni256      Ni  0.03758921  0.36790326  0.39426433     1.25400
C257        C  0.99903887  0.32471219  0.40280002     0.88000
C258        C  0.07440236  0.37679695  0.35032013     0.87900
C259        C  0.07390054  0.32268051  0.40147833     0.88000
C260        C  0.00057554  0.37940139  0.35126654     0.88100
O261        O  0.37555139  0.96904080  0.42130780    -0.74200
O262        O  0.41432390  0.02563924  0.38072158    -0.74200
O263        O  0.37594769  0.02538357  0.42170765    -0.74300
O264        O  0.41411699  0.96948551  0.38058589    -0.74300
O265        O  0.38043785  0.96933899  0.34925241    -0.74200
O266        O  0.34268660  0.02612872  0.38989087    -0.74200
O267        O  0.38110826  0.02559367  0.34909000    -0.74200
O268        O  0.34204207  0.96970039  0.38994823    -0.74300
Ni269      Ni  0.39615192  0.99737216  0.40223538     1.25400
Ni270      Ni  0.36035115  0.99770543  0.36845932     1.25400
C271        C  0.35231635  0.95998925  0.41230525     0.88000
C272        C  0.40433417  0.03470368  0.35789106     0.87900
C273        C  0.35312608  0.03504527  0.41250152     0.88000
C274        C  0.40387866  0.96064561  0.35789459     0.88100
O275        O  0.41336959  0.34262727  0.00460101    -0.74200
O276        O  0.37528684  0.38402822  0.06094425    -0.74200
O277        O  0.41302795  0.34192930  0.06038546    -0.74300
O278        O  0.37617018  0.38488582  0.00495334    -0.74300
O279        O  0.34208712  0.35367940  0.00376514    -0.74200
O280        O  0.37854575  0.31116812  0.06026016    -0.74200
O281        O  0.34106511  0.35320871  0.05968292    -0.74200
O282        O  0.37934742  0.31150492  0.00431475    -0.74300
Ni283      Ni  0.39566907  0.36448428  0.03276436     1.25400
Ni284      Ni  0.35904865  0.33130160  0.03198405     1.25400
C285        C  0.40262694  0.32011402  0.99515942     0.88000
C286        C  0.35172280  0.37542637  0.06965972     0.87900
C287        C  0.40197705  0.31945075  0.06941395     0.88000
C288        C  0.35299605  0.37651393  0.99535526     0.88100
C289        C  0.80124275  0.76148500  0.43549572    -0.22200
C290        C  0.80979512  0.78156628  0.41638216     0.09800
C291        C  0.82413149  0.80542003  0.42550971     0.10200
C292        C  0.82947419  0.80871682  0.45381570    -0.17100
C293        C  0.82046645  0.78881904  0.47310004    -0.27500
C294        C  0.80626723  0.76478399  0.46374079     0.18500
C295        C  0.80263360  0.77724430  0.38702330     0.12500
C296        C  0.83358316  0.82735171  0.40539265    -0.11900
H297        H  0.84047221  0.82698650  0.46099968     0.12700
C298        C  0.79537720  0.74251548  0.48285342    -0.22700
H299        H  0.79015336  0.74324112  0.42830939     0.08400
C300        C  0.81963895  0.76144170  0.36942195     0.04700
C301        C  0.81091019  0.75599377  0.34238470    -0.20000
C302        C  0.78516349  0.76536601  0.33256382    -0.12200
C303        C  0.76804771  0.78123929  0.35054214     0.13400
C304        C  0.77722882  0.78713367  0.37741934    -0.22700
C305        C  0.84665554  0.74971276  0.37946093    -0.05700
H306        H  0.82420345  0.74385087  0.32898789     0.15000
C307        C  0.73963827  0.79105033  0.34239300    -0.15900
H308        H  0.76418027  0.79890101  0.39139782     0.09300
H309        H  0.80506363  0.72222237  0.47761586     0.07100
H310        H  0.77269654  0.74055395  0.48017802     0.08300
H311        H  0.79936257  0.74692504  0.50492031     0.07400
H312        H  0.81552103  0.83597847  0.39419566     0.02300
H313        H  0.84811240  0.81804142  0.39026184     0.02800
H314        H  0.84427677  0.84480956  0.41597603     0.06300
H315        H  0.85747120  0.73770260  0.36311140     0.05200
H316        H  0.84282086  0.73550292  0.39713679    -0.00500
H317        H  0.86043427  0.76688527  0.38619854     0.00900
H318        H  0.72881208  0.80154134  0.35973684     0.04600
H319        H  0.72680377  0.77302076  0.33594187     0.06500
H320        H  0.74121812  0.80637719  0.32537097     0.07400
C321        C  0.79546494  0.79965459  0.69182991    -0.22200
C322        C  0.81795755  0.78629642  0.67943713     0.09800
C323        C  0.83442598  0.76820314  0.69527239     0.10200
C324        C  0.82698185  0.76250506  0.72269075    -0.17100
C325        C  0.80287547  0.77375983  0.73467905    -0.27500
C326        C  0.78744639  0.79355832  0.71907049     0.18500
C327        C  0.82159498  0.78888335  0.64912031     0.12500
C328        C  0.85916112  0.75392667  0.68288588    -0.11900
H329        H  0.83970262  0.74829481  0.73442401     0.12700
C330        C  0.76202211  0.80788448  0.73005980    -0.22700
H331        H  0.78320378  0.81386803  0.67948301     0.08400
C332        C  0.80322461  0.77528139  0.63096412     0.04700
C333        C  0.80666156  0.77843529  0.60248784    -0.20000
C334        C  0.82805067  0.79466302  0.59154293    -0.12200
C335        C  0.84689317  0.80783634  0.60959967     0.13400
C336        C  0.84339372  0.80479813  0.63827151    -0.22700
C337        C  0.78026182  0.75694707  0.64157819    -0.05700
H338        H  0.79262467  0.76791649  0.58856182     0.15000
C339        C  0.87061586  0.82527317  0.59933001    -0.15900
H340        H  0.85760707  0.81506080  0.65224203     0.09300
H341        H  0.74583136  0.79227054  0.73496851     0.07100
H342        H  0.75303198  0.82259940  0.71480970     0.08300
H343        H  0.76744667  0.82019872  0.74865114     0.07400
H344        H  0.87440601  0.76979348  0.67611626     0.02300
H345        H  0.85265035  0.74123485  0.66487361     0.02800
H346        H  0.86949695  0.73988738  0.69789900     0.06300
H347        H  0.76851610  0.74712243  0.62447636     0.05200
H348        H  0.76551068  0.76943283  0.65398145    -0.00500
H349        H  0.78900588  0.74006076  0.65458325     0.00900
H350        H  0.86886606  0.84668942  0.60781395     0.04600
H351        H  0.87117826  0.82692663  0.57652461     0.06500
H352        H  0.89038372  0.81593054  0.60634231     0.07400
C353        C  0.75323080  0.84908904  0.47480460    -0.22200
C354        C  0.76505338  0.87536698  0.47020287     0.09800
C355        C  0.79111752  0.88150008  0.48166965     0.10200
C356        C  0.80483722  0.86120582  0.49741108    -0.17100
C357        C  0.79312264  0.83486291  0.50208641    -0.27500
C358        C  0.76691618  0.82873475  0.49060131     0.18500
C359        C  0.74950058  0.89666010  0.45419678     0.12500
C360        C  0.80450602  0.90945593  0.47712004    -0.11900
H361        H  0.82505365  0.86574848  0.50586156     0.12700
C362        C  0.75276748  0.80110859  0.49454525    -0.22700
H363        H  0.73313834  0.84447478  0.46609454     0.08400
C364        C  0.75165936  0.89874141  0.42523961     0.04700
C365        C  0.73788162  0.92047368  0.41135470    -0.20000
C366        C  0.72167793  0.94012632  0.42569918    -0.12200
C367        C  0.71939838  0.93762232  0.45487824     0.13400
C368        C  0.73333107  0.91595564  0.46860084    -0.22700
C369        C  0.76872564  0.87814391  0.40911776    -0.05700
H370        H  0.73970041  0.92201096  0.38911033     0.15000
C371        C  0.70321356  0.95811487  0.47206132    -0.15900
H372        H  0.73197098  0.91423480  0.49087890     0.09300
H373        H  0.74951215  0.79110657  0.47415144     0.07100
H374        H  0.73238180  0.80438194  0.50450924     0.08300
H375        H  0.76479739  0.78665176  0.50762122     0.07400
H376        H  0.79117649  0.92616712  0.48569683     0.02300
H377        H  0.80750522  0.91307914  0.45468751     0.02800
H378        H  0.82497715  0.91078538  0.48733879     0.06300
H379        H  0.76835959  0.88267530  0.38664224     0.05200
H380        H  0.76056884  0.85675172  0.41233209    -0.00500
H381        H  0.79050291  0.87894167  0.41618757     0.00900
H382        H  0.68092883  0.95671619  0.46697549     0.04600
H383        H  0.71085633  0.97959942  0.46824019     0.06500
H384        H  0.70528958  0.95384116  0.49450036     0.07400
C385        C  0.90921321  0.75737222  0.47536675    -0.22200
C386        C  0.90622977  0.72836775  0.47368423     0.09800
C387        C  0.88311958  0.71546914  0.48604145     0.10200
C388        C  0.86343564  0.73195746  0.49974585    -0.17100
C389        C  0.86623070  0.76104924  0.50112849    -0.27500
C390        C  0.88956660  0.77388688  0.48895565     0.18500
C391        C  0.92754212  0.71207450  0.45865281     0.12500
C392        C  0.87912174  0.68438817  0.48451065    -0.11900
H393        H  0.84591797  0.72211440  0.50963914     0.12700
C394        C  0.89480775  0.80482719  0.49050307    -0.22700
H395        H  0.92713147  0.76719184  0.46609451     0.08400
C396        C  0.92891394  0.71221568  0.42963021     0.04700
C397        C  0.95017750  0.69763221  0.41628139    -0.20000
C398        C  0.97005329  0.68233284  0.43111988    -0.12200
C399        C  0.96800442  0.68150639  0.46047438     0.13400
C400        C  0.94696529  0.69671353  0.47368386    -0.22700
C401        C  0.90760465  0.72738172  0.41271928    -0.05700
H402        H  0.95114746  0.69806011  0.39393497     0.15000
C403        C  0.98744300  0.66582518  0.47917210    -0.15900
H404        H  0.94575039  0.69670355  0.49603667     0.09300
H405        H  0.89575147  0.81358424  0.46931148     0.07100
H406        H  0.91485706  0.80863473  0.50093534     0.08300
H407        H  0.87870135  0.81629873  0.50210459     0.07400
H408        H  0.89651380  0.67362978  0.49492808     0.02300
H409        H  0.87827951  0.67774422  0.46258053     0.02800
H410        H  0.85965021  0.67777738  0.49472151     0.06300
H411        H  0.91118288  0.72476583  0.39022744     0.05200
H412        H  0.90814365  0.75000689  0.41742140    -0.00500
H413        H  0.88681002  0.71902998  0.41766636     0.00900
H414        H  0.99811796  0.68078153  0.49301958     0.04600
H415        H  0.00332131  0.65361615  0.46842343     0.06500
H416        H  0.97543210  0.65101260  0.49208121     0.07400
C417        C  0.94577738  0.69201422  0.58795302    -0.22200
C418        C  0.93164553  0.71342181  0.60159418     0.09800
C419        C  0.93752756  0.71879602  0.62954736     0.10200
C420        C  0.95749294  0.70272075  0.64328741    -0.17100
C421        C  0.97180248  0.68097059  0.62993004    -0.27500
C422        C  0.96572296  0.67566380  0.60163640     0.18500
C423        C  0.91036992  0.72978078  0.58649118     0.12500
C424        C  0.92226869  0.74124219  0.64499718    -0.11900
H425        H  0.96166601  0.70708582  0.66481806     0.12700
C426        C  0.98016537  0.65321038  0.58536311    -0.22700
H427        H  0.94107967  0.68807514  0.56642887     0.08400
C428        C  0.91681753  0.75534251  0.57358408     0.04700
C429        C  0.89569215  0.77089162  0.56107025    -0.20000
C430        C  0.86832862  0.76126350  0.56064200    -0.12200
C431        C  0.86210102  0.73503695  0.57250986     0.13400
C432        C  0.88313529  0.71984331  0.58567621    -0.22700
C433        C  0.94603184  0.76604550  0.57274031    -0.05700
H434        H  0.90055189  0.79061949  0.55132968     0.15000
C435        C  0.83376593  0.72219170  0.57111010    -0.15900
H436        H  0.87830089  0.70000933  0.59525593     0.09300
H437        H  0.97345519  0.65292048  0.56344575     0.07100
H438        H  0.97537431  0.63244462  0.59425430     0.08300
H439        H  0.00276931  0.65683501  0.58558094     0.07400
H440        H  0.89984919  0.73666731  0.64444378     0.02300
H441        H  0.92600778  0.76183461  0.63526053     0.02800
H442        H  0.92881139  0.74248660  0.66691984     0.06300
H443        H  0.94750085  0.78622837  0.56158935     0.05200
H444        H  0.95941271  0.75072704  0.56196252    -0.00500
H445        H  0.95387412  0.76920521  0.59400588     0.00900
H446        H  0.83507966  0.70162342  0.56069700     0.04600
H447        H  0.81887090  0.73510949  0.55938936     0.06500
H448        H  0.82563361  0.71912312  0.59232780     0.07400
C449        C  0.75944563  0.90322741  0.63786427    -0.22200
C450        C  0.75766461  0.90380089  0.60897906     0.09800
C451        C  0.74193566  0.92489551  0.59614267     0.10200
C452        C  0.72831925  0.94490313  0.61249358    -0.17100
C453        C  0.73011076  0.94457078  0.64151055    -0.27500
C454        C  0.74595954  0.92330333  0.65430518     0.18500
C455        C  0.77177424  0.88159709  0.59266166     0.12500
C456        C  0.73938604  0.92615859  0.56517017    -0.11900
H457        H  0.71629388  0.96104114  0.60248315     0.12700
C458        C  0.74792884  0.92088521  0.68524094    -0.22700
H459        H  0.77135020  0.88680712  0.64758843     0.08400
C460        C  0.79925565  0.88458708  0.58334769     0.04700
C461        C  0.81172371  0.86284061  0.56833626    -0.20000
C462        C  0.79742596  0.83807471  0.56243037    -0.12200
C463        C  0.76993517  0.83504915  0.57196037     0.13400
C464        C  0.75748166  0.85686108  0.58685408    -0.22700
C465        C  0.81546057  0.91063783  0.58944948    -0.05700
H466        H  0.83282348  0.86509809  0.56120005     0.15000
C467        C  0.75325549  0.80904003  0.56723173    -0.15900
H468        H  0.73645017  0.85448210  0.59417491     0.09300
H469        H  0.75974236  0.90210852  0.69160275     0.07100
H470        H  0.72690442  0.91926401  0.69424082     0.08300
H471        H  0.75868687  0.93934085  0.69385353     0.07400
H472        H  0.72986003  0.90663409  0.55740719     0.02300
H473        H  0.76010409  0.92864580  0.55568234     0.02800
H474        H  0.72634864  0.94394088  0.55841700     0.06300
H475        H  0.83666534  0.90959353  0.58075927     0.05200
H476        H  0.81714141  0.91351959  0.61211438    -0.00500
H477        H  0.80492325  0.92900335  0.58035349     0.00900
H478        H  0.74715445  0.79997184  0.58742774     0.04600
H479        H  0.76475863  0.79291739  0.55564704     0.06500
H480        H  0.73431221  0.81431213  0.55547254     0.07400
C481        C  0.83915219  0.19367729  0.42240772    -0.22200
C482        C  0.82341048  0.21631569  0.41304068     0.09800
C483        C  0.81292748  0.23580700  0.43210352     0.10200
C484        C  0.81738300  0.23156243  0.46027242    -0.17100
C485        C  0.83266147  0.20871720  0.46984335    -0.27500
C486        C  0.84429925  0.18986956  0.45068835     0.18500
C487        C  0.81650713  0.21869915  0.38343954     0.12500
C488        C  0.79691266  0.26101869  0.42271667    -0.11900
H489        H  0.80860059  0.24602193  0.47503988     0.12700
C490        C  0.86221298  0.16577918  0.45936903    -0.22700
H491        H  0.84732743  0.17888552  0.40761069     0.08400
C492        C  0.83372439  0.23286891  0.36472270     0.04700
C493        C  0.82425503  0.23793638  0.33778635    -0.20000
C494        C  0.79780670  0.22927951  0.32907913    -0.12200
C495        C  0.78108595  0.21390586  0.34796914     0.13400
C496        C  0.79080949  0.20887326  0.37476841    -0.22700
C497        C  0.86176463  0.24318513  0.37347282    -0.05700
H498        H  0.83748504  0.24927165  0.32365389     0.15000
C499        C  0.75264970  0.20330066  0.34093441    -0.15900
H500        H  0.77785564  0.19798960  0.38953559     0.09300
H501        H  0.88278508  0.16771834  0.44942891     0.07100
H502        H  0.85253294  0.14590725  0.45273270     0.08300
H503        H  0.86546151  0.16490602  0.48198807     0.07400
H504        H  0.77797478  0.25439056  0.41164463     0.02300
H505        H  0.80989539  0.27380806  0.40868473     0.02800
H506        H  0.79058734  0.27433720  0.44036698     0.06300
H507        H  0.87265695  0.25400484  0.35636638     0.05200
H508        H  0.87467127  0.22529956  0.38017643    -0.00500
H509        H  0.85960987  0.25804649  0.39090209     0.00900
H510        H  0.75415030  0.18789122  0.32399575     0.04600
H511        H  0.73902384  0.22089890  0.33496819     0.06500
H512        H  0.74269954  0.19255742  0.35866054     0.07400
C513        C  0.76160011  0.15159819  0.47105631    -0.22200
C514        C  0.77159496  0.12418840  0.47002503     0.09800
C515        C  0.79634306  0.11745905  0.48381460     0.10200
C516        C  0.81066363  0.13833529  0.49813190    -0.17100
C517        C  0.80087047  0.16584919  0.49911844    -0.27500
C518        C  0.77580586  0.17252340  0.48555622     0.18500
C519        C  0.75599569  0.10279059  0.45427310     0.12500
C520        C  0.80758281  0.08820559  0.48347232    -0.11900
H521        H  0.82982492  0.13323121  0.50851233     0.12700
C522        C  0.76327053  0.20122264  0.48607946    -0.22700
H523        H  0.74249681  0.15666856  0.46053114     0.08400
C524        C  0.73365666  0.08824318  0.46608573     0.04700
C525        C  0.72016078  0.06751003  0.45066821    -0.20000
C526        C  0.72827982  0.06085866  0.42347415    -0.12200
C527        C  0.75062810  0.07599763  0.41159119     0.13400
C528        C  0.76413589  0.09662283  0.42723256    -0.22700
C529        C  0.72419986  0.09452526  0.49506186    -0.05700
H530        H  0.70314948  0.05635031  0.46011928     0.15000
C531        C  0.76028789  0.07119558  0.38240104    -0.15900
H532        H  0.78128764  0.10807443  0.41835167     0.09300
H533        H  0.74218365  0.20014819  0.49499864     0.07100
H534        H  0.76173895  0.20938777  0.46469063     0.08300
H535        H  0.77542233  0.21615541  0.49852512     0.07400
H536        H  0.81198690  0.08178816  0.46191016     0.02300
H537        H  0.79222773  0.07370776  0.49262752     0.02800
H538        H  0.82702078  0.08646699  0.49549604     0.06300
H539        H  0.70651855  0.08118174  0.50129856     0.05200
H540        H  0.71757325  0.11662920  0.49651087    -0.00500
H541        H  0.74137323  0.09084246  0.50978129     0.00900
H542        H  0.77721147  0.08566557  0.37651506     0.04600
H543        H  0.74297297  0.07468475  0.36782704     0.06500
H544        H  0.76834510  0.04966182  0.38019024     0.07400
C545        C  0.92364355  0.24253297  0.48182022    -0.22200
C546        C  0.91611667  0.26692288  0.46780878     0.09800
C547        C  0.88873647  0.27668621  0.46954054     0.10200
C548        C  0.86957720  0.26208319  0.48573495    -0.17100
C549        C  0.87677969  0.23726072  0.49931524    -0.27500
C550        C  0.90423263  0.22729829  0.49719088     0.18500
C551        C  0.93721925  0.28186579  0.45130673     0.12500
C552        C  0.87974037  0.30241004  0.45416470    -0.11900
H553        H  0.84877590  0.27004269  0.48764091     0.12700
C554        C  0.91367485  0.20046035  0.51030108    -0.22700
H555        H  0.94472033  0.23505639  0.48031513     0.08400
C556        C  0.95534691  0.30114851  0.46356932     0.04700
C557        C  0.97504966  0.31479013  0.44717187    -0.20000
C558        C  0.97728842  0.30952555  0.41865650    -0.12200
C559        C  0.95872789  0.29018989  0.40637993     0.13400
C560        C  0.93897198  0.27667680  0.42294480    -0.22700
C561        C  0.95389414  0.30721603  0.49401184    -0.05700
H562        H  0.98902788  0.32943646  0.45687443     0.15000
C563        C  0.95897140  0.28392635  0.37589387    -0.15900
H564        H  0.92473533  0.26191547  0.41376438     0.09300
H565        H  0.93033505  0.20493747  0.52539083     0.07100
H566        H  0.92189446  0.18634343  0.49411345     0.08300
H567        H  0.89690243  0.18920817  0.52114858     0.07400
H568        H  0.88272371  0.29927028  0.43165850     0.02300
H569        H  0.89215399  0.32058598  0.46099658     0.02800
H570        H  0.85759262  0.30718699  0.45779830     0.06300
H571        H  0.96945599  0.32294895  0.50037656     0.05200
H572        H  0.95783135  0.28776563  0.50574137    -0.00500
H573        H  0.93309906  0.31529170  0.49941627     0.00900
H574        H  0.97868795  0.27370823  0.37008613     0.04600
H575        H  0.95626517  0.30350491  0.36396298     0.06500
H576        H  0.94201000  0.26953815  0.36997013     0.07400
C577        C  0.74822158  0.07885975  0.59354301    -0.22200
C578        C  0.75882487  0.10256618  0.60666156     0.09800
C579        C  0.75547291  0.10569955  0.63541643     0.10200
C580        C  0.74114058  0.08516649  0.65038692    -0.17100
C581        C  0.73017034  0.06148728  0.63728381    -0.27500
C582        C  0.73440425  0.05798929  0.60850922     0.18500
C583        C  0.77397311  0.12356202  0.58999834     0.12500
C584        C  0.76723149  0.13061527  0.65026281    -0.11900
H585        H  0.73824637  0.08774085  0.67242598     0.12700
C586        C  0.72605089  0.03205832  0.59302433    -0.22700
H587        H  0.75134754  0.07631582  0.57152136     0.08400
C588        C  0.80210464  0.12007204  0.58328920     0.04700
C589        C  0.81574096  0.14080796  0.56803350    -0.20000
C590        C  0.80190017  0.16494174  0.55926646    -0.12200
C591        C  0.77364962  0.16834136  0.56594257     0.13400
C592        C  0.76003966  0.14754372  0.58115738    -0.22700
C593        C  0.81776956  0.09462396  0.59251876    -0.05700
H594        H  0.83739993  0.13829254  0.56296934     0.15000
C595        C  0.75729711  0.19364730  0.55779897    -0.15900
H596        H  0.73842916  0.15016431  0.58641134     0.09300
H597        H  0.74440728  0.02317492  0.58245347     0.07100
H598        H  0.71032084  0.03744245  0.57725200     0.08300
H599        H  0.71769746  0.01543199  0.60645885     0.07400
H600        H  0.75790810  0.15004246  0.64201828     0.02300
H601        H  0.78994804  0.13141173  0.64722451     0.02800
H602        H  0.76305310  0.12975018  0.67278991     0.06300
H603        H  0.83968607  0.09532090  0.58578691     0.05200
H604        H  0.80817110  0.07564608  0.58361179    -0.00500
H605        H  0.81733792  0.09317755  0.61538289     0.00900
H606        H  0.73966722  0.18723102  0.54464648     0.04600
H607        H  0.76975043  0.20906092  0.54628272     0.06500
H608        H  0.74909589  0.20393774  0.57660799     0.07400
C609        C  0.89509961  0.28143633  0.57722647    -0.22200
C610        C  0.91540047  0.26662805  0.59164484     0.09800
C611        C  0.91581674  0.23729370  0.59038029     0.10200
C612        C  0.89604023  0.22340977  0.57433728    -0.17100
C613        C  0.87549376  0.23811516  0.55994218    -0.27500
C614        C  0.87493377  0.26759121  0.56161776     0.18500
C615        C  0.93619627  0.28239061  0.60767697     0.12500
C616        C  0.93713173  0.22073265  0.60594070    -0.11900
H617        H  0.89656096  0.20087527  0.57301064     0.12700
C618        C  0.85320967  0.28514733  0.54782461    -0.22700
H619        H  0.89485689  0.30401352  0.57837728     0.08400
C620        C  0.96105625  0.29183696  0.59561239     0.04700
C621        C  0.97963291  0.30740323  0.61155639    -0.20000
C622        C  0.97408379  0.31364360  0.63930072    -0.12200
C623        C  0.94890519  0.30459294  0.65124191     0.13400
C624        C  0.93043772  0.28881120  0.63530227    -0.22700
C625        C  0.96868520  0.28576977  0.56607654    -0.05700
H626        H  0.99887702  0.31431133  0.60235039     0.15000
C627        C  0.94016844  0.31213707  0.68017961    -0.15900
H628        H  0.91112872  0.28187315  0.64434064     0.09300
H629        H  0.86318140  0.29950091  0.53284371     0.07100
H630        H  0.84226896  0.29777560  0.56359871     0.08300
H631        H  0.83758620  0.27260586  0.53675146     0.07400
H632        H  0.93527574  0.22505319  0.62837473     0.02300
H633        H  0.95812594  0.22664679  0.59882265     0.02800
H634        H  0.93450046  0.19795994  0.60275379     0.06300
H635        H  0.98844943  0.27406391  0.56546657     0.05200
H636        H  0.97133543  0.30571441  0.55475571    -0.00500
H637        H  0.95292389  0.27320319  0.55514094     0.00900
H638        H  0.91980297  0.32275387  0.67951548     0.04600
H639        H  0.95464283  0.32651639  0.69062547     0.06500
H640        H  0.93820487  0.29290064  0.69277496     0.07400
C641        C  0.82319456  0.39626043  0.25541843    -0.22200
C642        C  0.83153799  0.37862342  0.23398022     0.09800
C643        C  0.84362225  0.39011413  0.21005087     0.10200
C644        C  0.84693482  0.41918582  0.20810745    -0.17100
C645        C  0.83777236  0.43695758  0.22928417    -0.27500
C646        C  0.82575267  0.42523120  0.25328602     0.18500
C647        C  0.82465933  0.34861013  0.23652405     0.12500
C648        C  0.85267625  0.37173182  0.18658757    -0.11900
H649        H  0.85608989  0.42815455  0.18972989     0.12700
C650        C  0.81427371  0.44250243  0.27662018    -0.22700
H651        H  0.81354310  0.38733741  0.27360589     0.08400
C652        C  0.83984493  0.33065762  0.25374857     0.04700
C653        C  0.82903509  0.30439819  0.26059385    -0.20000
C654        C  0.80291239  0.29573119  0.25112929    -0.12200
C655        C  0.78860584  0.31329552  0.23214343     0.13400
C656        C  0.79986731  0.33933161  0.22506242    -0.22700
C657        C  0.86695848  0.33972093  0.26576269    -0.05700
H658        H  0.84062984  0.29111202  0.27445831     0.15000
C659        C  0.76066608  0.30622459  0.22048892    -0.15900
H660        H  0.78837145  0.35341878  0.21187498     0.09300
H661        H  0.82547142  0.43744080  0.29596586     0.07100
H662        H  0.79208024  0.43750024  0.27953965     0.08300
H663        H  0.81584246  0.46522996  0.27299305     0.07400
H664        H  0.83467467  0.36012253  0.17831326     0.02300
H665        H  0.86838220  0.35665121  0.19403078     0.02800
H666        H  0.86186820  0.38404057  0.16946535     0.06300
H667        H  0.87650241  0.32312655  0.27858369     0.05200
H668        H  0.86354824  0.35821621  0.27901680    -0.00500
H669        H  0.88152987  0.34513416  0.24888494     0.00900
H670        H  0.75305133  0.32249369  0.20605225     0.04600
H671        H  0.74552172  0.30479979  0.23758311     0.06500
H672        H  0.76168427  0.28640934  0.20872637     0.07400
C673        C  0.83241678  0.60550070  0.21706379    -0.22200
C674        C  0.81696251  0.61308344  0.24035759     0.09800
C675        C  0.80805816  0.59232894  0.25904213     0.10200
C676        C  0.81461608  0.56446247  0.25376723    -0.17100
C677        C  0.82989305  0.55672791  0.23041823    -0.27500
C678        C  0.83928130  0.57753575  0.21198963     0.18500
C679        C  0.80979597  0.64271934  0.24453124     0.12500
C680        C  0.79143511  0.59872943  0.28459818    -0.11900
H681        H  0.80746628  0.54849955  0.26791418     0.12700
C682        C  0.85672957  0.57108561  0.18709544    -0.22700
H683        H  0.83928642  0.62152876  0.20285074     0.08400
C684        C  0.82479378  0.65966854  0.26286108     0.04700
C685        C  0.81505904  0.68651444  0.26886664    -0.20000
C686        C  0.79047258  0.69687544  0.25715662    -0.12200
C687        C  0.77624886  0.68005857  0.23756168     0.13400
C688        C  0.78624031  0.65324936  0.23155214    -0.22700
C689        C  0.85072619  0.64913042  0.27651217    -0.05700
H690        H  0.82647566  0.69920902  0.28340443     0.15000
C691        C  0.74992062  0.68920457  0.22370893    -0.15900
H692        H  0.77502530  0.63990509  0.21739989     0.09300
H693        H  0.87663991  0.58243688  0.18862506     0.07100
H694        H  0.84582668  0.57799341  0.16814227     0.08300
H695        H  0.86140202  0.54859010  0.18507656     0.07400
H696        H  0.77146188  0.58740445  0.28372248     0.02300
H697        H  0.80301781  0.59170132  0.30310603     0.02800
H698        H  0.78685251  0.62121052  0.28709687     0.06300
H699        H  0.86010323  0.66511504  0.29017174     0.05200
H700        H  0.86613812  0.64341580  0.26050972    -0.00500
H701        H  0.84599873  0.63048480  0.28924271     0.00900
H702        H  0.74166311  0.67297068  0.20961073     0.04600
H703        H  0.75376608  0.70811318  0.21107233     0.06500
H704        H  0.73386780  0.69334117  0.23953915     0.07400
C705        C  0.76193876  0.43855557  0.17556707    -0.22200
C706        C  0.77256831  0.43405123  0.14899685     0.09800
C707        C  0.79882283  0.44481268  0.14210666     0.10200
C708        C  0.81374527  0.45993152  0.16188928    -0.17100
C709        C  0.80303934  0.46472941  0.18837019    -0.27500
C710        C  0.77685288  0.45371873  0.19538028     0.18500
C711        C  0.75556012  0.41874698  0.12843911     0.12500
C712        C  0.81122502  0.44011029  0.11398296    -0.11900
H713        H  0.83395811  0.46813181  0.15670758     0.12700
C714        C  0.76406815  0.45749642  0.22343142    -0.22700
H715        H  0.74174289  0.43034306  0.18081324     0.08400
C716        C  0.75235707  0.38950859  0.12940775     0.04700
C717        C  0.73608323  0.37613007  0.10932583    -0.20000
C718        C  0.72273453  0.39133224  0.08839315    -0.12200
C719        C  0.72648582  0.42064422  0.08722245     0.13400
C720        C  0.74266808  0.43391873  0.10736702    -0.22700
C721        C  0.76639099  0.37243866  0.15141919    -0.05700
H722        H  0.73349842  0.35370770  0.11017650     0.15000
C723        C  0.71451163  0.43802524  0.06422291    -0.15900
H724        H  0.74544305  0.45633418  0.10664271     0.09300
H725        H  0.76051902  0.43676999  0.23300516     0.07100
H726        H  0.74395021  0.46836352  0.22132387     0.08300
H727        H  0.77721559  0.46982053  0.23753590     0.07400
H728        H  0.79806326  0.44987170  0.09793750     0.02300
H729        H  0.81288351  0.41739765  0.10992265     0.02800
H730        H  0.83219685  0.44933226  0.11230389     0.06300
H731        H  0.76222532  0.34981550  0.14891117     0.05200
H732        H  0.75883024  0.37880051  0.17210281    -0.00500
H733        H  0.78906535  0.37569862  0.15036034     0.00900
H734        H  0.69164054  0.43781294  0.06527407     0.04600
H735        H  0.72145926  0.42972050  0.04399203     0.06500
H736        H  0.72123102  0.46012569  0.06555660     0.07400
C737        C  0.96093943  0.44022707  0.31984001    -0.22200
C738        C  0.93987355  0.42599254  0.30606285     0.09800
C739        C  0.93849302  0.39670359  0.30750142     0.10200
C740        C  0.95858607  0.38209078  0.32240371    -0.17100
C741        C  0.97979576  0.39618610  0.33630850    -0.27500
C742        C  0.98092299  0.42572056  0.33509811     0.18500
C743        C  0.91962499  0.44205059  0.28979296     0.12500
C744        C  0.91548672  0.38098043  0.29371892    -0.11900
H745        H  0.95754126  0.35954378  0.32347791     0.12700
C746        C  0.00362957  0.44208156  0.34879974    -0.22700
H747        H  0.96178943  0.46277065  0.31846280     0.08400
C748        C  0.89711425  0.45555319  0.30246291     0.04700
C749        C  0.87775205  0.46934999  0.28595335    -0.20000
C750        C  0.88029583  0.46969650  0.25711567    -0.12200
C751        C  0.90316602  0.45651359  0.24447198     0.13400
C752        C  0.92259671  0.44288888  0.26105539    -0.22700
C753        C  0.89320682  0.45484994  0.33328257    -0.05700
H754        H  0.86026316  0.47955306  0.29554402     0.15000
C755        C  0.90784372  0.45641719  0.21371792    -0.15900
H756        H  0.94005480  0.43253557  0.25150133     0.09300
H757        H  0.00247283  0.43956126  0.37152548     0.07100
H758        H  0.00208009  0.46472591  0.34424064     0.08300
H759        H  0.02391340  0.43468546  0.34116153     0.07400
H760        H  0.91604458  0.38460555  0.27110251     0.02300
H761        H  0.89540040  0.38828933  0.30206994     0.02800
H762        H  0.91710254  0.35819150  0.29740967     0.06300
H763        H  0.87423245  0.46612857  0.33970578     0.05200
H764        H  0.91111160  0.46484821  0.34357091    -0.00500
H765        H  0.89143971  0.43290795  0.34037001     0.00900
H766        H  0.92810382  0.46613893  0.20899745     0.04600
H767        H  0.89179014  0.46797278  0.20216089     0.06500
H768        H  0.90807738  0.43459040  0.20612198     0.07400
C769        C  0.75418083  0.60240292  0.13353120    -0.22200
C770        C  0.75105451  0.57343577  0.13231519     0.09800
C771        C  0.73316707  0.56151167  0.11270867     0.10200
C772        C  0.71955023  0.57892703  0.09387267    -0.17100
C773        C  0.72334302  0.60802270  0.09423942    -0.27500
C774        C  0.74049196  0.61994557  0.11482797     0.18500
C775        C  0.76743070  0.55601001  0.15133956     0.12500
C776        C  0.72840768  0.53046137  0.11177631    -0.11900
H777        H  0.70622852  0.56965128  0.07844081     0.12700
C778        C  0.74396474  0.65101600  0.11787032    -0.22700
H779        H  0.76770451  0.61126121  0.14904869     0.08400
C780        C  0.79318836  0.54502462  0.14325268     0.04700
C781        C  0.80848561  0.52936302  0.16218777    -0.20000
C782        C  0.79905859  0.52516219  0.18922112    -0.12200
C783        C  0.77311403  0.53602561  0.19728619     0.13400
C784        C  0.75757979  0.55132604  0.17813387    -0.22700
C785        C  0.80498084  0.55065630  0.11500544    -0.05700
H786        H  0.82843953  0.52111355  0.15618444     0.15000
C787        C  0.76129382  0.53206922  0.22575743    -0.15900
H788        H  0.73778864  0.55995366  0.18421467     0.09300
H789        H  0.75648019  0.65643789  0.13630377     0.07100
H790        H  0.72342491  0.66096858  0.12027423     0.08300
H791        H  0.75473134  0.65972990  0.09958956     0.07400
H792        H  0.71990025  0.52329304  0.13184579     0.02300
H793        H  0.74809738  0.51937928  0.10774569     0.02800
H794        H  0.71357760  0.52460423  0.09530182     0.06300
H795        H  0.82553669  0.54076168  0.11228034     0.05200
H796        H  0.80742711  0.57346473  0.11199072    -0.00500
H797        H  0.79103543  0.54233147  0.09886008     0.00900
H798        H  0.75793690  0.55272738  0.23552412     0.04600
H799        H  0.74113975  0.52116215  0.22428272     0.06500
H800        H  0.77493171  0.51966758  0.23936264     0.07400
C801        C  0.92073641  0.55260458  0.26479635    -0.22200
C802        C  0.91315847  0.56047346  0.29160720     0.09800
C803        C  0.88663080  0.55364417  0.30155807     0.10200
C804        C  0.86855783  0.53830446  0.28476125    -0.17100
C805        C  0.87616658  0.53012360  0.25799839    -0.27500
C806        C  0.90252420  0.53767313  0.24778009     0.18500
C807        C  0.93345373  0.57562191  0.30899338     0.12500
C808        C  0.87751780  0.56240267  0.32996334    -0.11900
H809        H  0.84845802  0.53238816  0.29263782     0.12700
C810        C  0.91213781  0.53036852  0.21913067    -0.22700
H811        H  0.94105918  0.55810301  0.25712388     0.08400
C812        C  0.95344536  0.56128321  0.32467561     0.04700
C813        C  0.97265713  0.57652990  0.34034593    -0.20000
C814        C  0.97237007  0.60588195  0.34077109    -0.12200
C815        C  0.95158345  0.62013070  0.32561153     0.13400
C816        C  0.93257012  0.60477103  0.30982014    -0.22700
C817        C  0.95434888  0.52987289  0.32491852    -0.05700
H818        H  0.98821421  0.56541699  0.35204987     0.15000
C819        C  0.94853866  0.65140538  0.32657669    -0.15900
H820        H  0.91681556  0.61553537  0.29803333     0.09300
H821        H  0.93102694  0.51734175  0.22044271     0.07100
H822        H  0.91712409  0.54976733  0.20766086     0.08300
H823        H  0.89645276  0.51879195  0.20712565     0.07400
H824        H  0.87797480  0.58548400  0.33155567     0.02300
H825        H  0.89156123  0.55335418  0.34568358     0.02800
H826        H  0.85617669  0.55530452  0.33457169     0.06300
H827        H  0.97109312  0.52186223  0.33840722     0.05200
H828        H  0.95798066  0.52195161  0.30370256    -0.00500
H829        H  0.93442212  0.52149420  0.33267141     0.00900
H830        H  0.92988677  0.65855896  0.31528699     0.04600
H831        H  0.96663668  0.66154517  0.31675641     0.06500
H832        H  0.94655183  0.65841902  0.34833086     0.07400
C833        C  0.13678285  0.23571258  0.58155642    -0.22200
C834        C  0.14717347  0.25958556  0.59448315     0.09800
C835        C  0.17523095  0.26672802  0.59143048     0.10200
C836        C  0.19234280  0.24984226  0.57515232    -0.17100
C837        C  0.18207440  0.22571932  0.56239916    -0.27500
C838        C  0.15392043  0.21850606  0.56569530     0.18500
C839        C  0.12805661  0.27703047  0.61076544     0.12500
C840        C  0.18706772  0.29197720  0.60556633    -0.11900
H841        H  0.21396349  0.25513431  0.57277346     0.12700
C842        C  0.14135600  0.19258419  0.55341206    -0.22700
H843        H  0.11518255  0.23034361  0.58409952     0.08400
C844        C  0.11288710  0.29859716  0.59826535     0.04700
C845        C  0.09442686  0.31423307  0.61425243    -0.20000
C846        C  0.09038313  0.30859532  0.64250388    -0.12200
C847        C  0.10589109  0.28680071  0.65500252     0.13400
C848        C  0.12459612  0.27141224  0.63888567    -0.22700
C849        C  0.11594622  0.30480073  0.56792527    -0.05700
H850        H  0.08266917  0.33063271  0.60435222     0.15000
C851        C  0.10334542  0.27961950  0.68519190    -0.15900
H852        H  0.13648084  0.25470621  0.64816028     0.09300
H853        H  0.12472878  0.19853683  0.53880119     0.07100
H854        H  0.13221618  0.17962962  0.57007164     0.08300
H855        H  0.15654609  0.17951169  0.54225063     0.07400
H856        H  0.18431799  0.29000676  0.62822721     0.02300
H857        H  0.17631595  0.31104627  0.59832357     0.02800
H858        H  0.20946352  0.29439412  0.60123537     0.06300
H859        H  0.10253552  0.32235431  0.56133792     0.05200
H860        H  0.11013239  0.28611996  0.55574776    -0.00500
H861        H  0.13766766  0.31042643  0.56318635     0.00900
H862        H  0.08227585  0.27176298  0.68972541     0.04600
H863        H  0.10780384  0.29828036  0.69791442     0.06500
H864        H  0.11811984  0.26304888  0.69137602     0.07400
C865        C  0.31670859  0.07141642  0.59753398    -0.22200
C866        C  0.30173139  0.09196148  0.61155316     0.09800
C867        C  0.30210747  0.09270315  0.64063269     0.10200
C868        C  0.31795856  0.07304224  0.65511858    -0.17100
C869        C  0.33346171  0.05260817  0.64120301    -0.27500
C870        C  0.33252077  0.05162709  0.61192727     0.18500
C871        C  0.28526829  0.11214239  0.59533021     0.12500
C872        C  0.28561539  0.11413415  0.65632020    -0.11900
H873        H  0.31840938  0.07378999  0.67746978     0.12700
C874        C  0.34715977  0.02927131  0.59565644    -0.22700
H875        H  0.31588893  0.07084737  0.57517763     0.08400
C876        C  0.29631541  0.13802351  0.58701152     0.04700
C877        C  0.27967256  0.15666762  0.57217607    -0.20000
C878        C  0.25255115  0.14964211  0.56479303    -0.12200
C879        C  0.24174213  0.12339744  0.57257753     0.13400
C880        C  0.25820628  0.10505827  0.58796494    -0.22700
C881        C  0.32574071  0.14574670  0.59344982    -0.05700
H882        H  0.28792311  0.17672103  0.56600842     0.15000
C883        C  0.21310755  0.11397020  0.56487768    -0.15900
H884        H  0.24992954  0.08501097  0.59417755     0.09300
H885        H  0.34249254  0.03070007  0.57325573     0.07100
H886        H  0.34047463  0.00836953  0.60292714     0.08300
H887        H  0.36983325  0.03143085  0.59802365     0.07400
H888        H  0.26336022  0.11188634  0.65132328     0.02300
H889        H  0.29249226  0.13542580  0.65056882     0.02800
H890        H  0.28808917  0.11175265  0.67898416     0.06300
H891        H  0.33111557  0.16668514  0.58525394     0.05200
H892        H  0.33992851  0.13029736  0.58396018    -0.00500
H893        H  0.32898078  0.14596342  0.61610883     0.00900
H894        H  0.21447497  0.09465015  0.55235567     0.04600
H895        H  0.20159814  0.12969057  0.55273329     0.06500
H896        H  0.20111257  0.10943421  0.58388611     0.07400
C897        C  0.31253139  0.09930767  0.43347471    -0.22200
C898        C  0.30720204  0.09322208  0.46121483     0.09800
C899        C  0.31775244  0.06866343  0.47315384     0.10200
C900        C  0.33337003  0.05043223  0.45680416    -0.17100
C901        C  0.33824385  0.05612619  0.42878698    -0.27500
C902        C  0.32812211  0.08115955  0.41707443     0.18500
C903        C  0.28956442  0.11246687  0.47698620     0.12500
C904        C  0.31207853  0.06151939  0.50292132    -0.11900
H905        H  0.34116676  0.03125622  0.46571269     0.12700
C906        C  0.33397905  0.08990465  0.38778300    -0.22700
H907        H  0.30446824  0.11839601  0.42458630     0.08400
C908        C  0.30073935  0.13532531  0.49137876     0.04700
C909        C  0.28287621  0.15364000  0.50501341    -0.20000
C910        C  0.25424147  0.14932262  0.50484957    -0.12200
C911        C  0.24310869  0.12619134  0.49060736     0.13400
C912        C  0.26099572  0.10811801  0.47668656    -0.22700
C913        C  0.33140181  0.14044554  0.49219133    -0.05700
H914        H  0.29125137  0.17153753  0.51573596     0.15000
C915        C  0.21266161  0.11978396  0.48977860    -0.15900
H916        H  0.25262566  0.09046715  0.46549771     0.09300
H917        H  0.34406184  0.11069722  0.38775332     0.07100
H918        H  0.31432121  0.09129309  0.37609483     0.08300
H919        H  0.34800716  0.07543900  0.37692750     0.07400
H920        H  0.28947524  0.05974141  0.50632511     0.02300
H921        H  0.32042699  0.07805689  0.51656860     0.02800
H922        H  0.32176488  0.04142817  0.50891874     0.06300
H923        H  0.33658182  0.15928688  0.50445653     0.05200
H924        H  0.33935074  0.14347707  0.47090861    -0.00500
H925        H  0.34200071  0.12234333  0.50172255     0.00900
H926        H  0.20546873  0.11980075  0.46802905     0.04600
H927        H  0.20001681  0.13495336  0.50148919     0.06500
H928        H  0.20894036  0.09880699  0.49871653     0.07400
C929        C  0.17449928  0.26979885  0.47881025    -0.22200
C930        C  0.15079905  0.25817601  0.46685701     0.09800
C931        C  0.14394368  0.23013536  0.47225121     0.10200
C932        C  0.16086675  0.21437961  0.48970315    -0.17100
C933        C  0.18450812  0.22594009  0.50182247    -0.27500
C934        C  0.19150489  0.25400696  0.49626296     0.18500
C935        C  0.13254725  0.27598952  0.44988733     0.12500
C936        C  0.11865004  0.21692104  0.45978883    -0.11900
H937        H  0.15591046  0.19269982  0.49355699     0.12700
C938        C  0.21677090  0.26781337  0.50809145    -0.22700
H939        H  0.17968091  0.29137509  0.47456145     0.08400
C940        C  0.11433769  0.29510431  0.46228079     0.04700
C941        C  0.09593669  0.31011571  0.44569380    -0.20000
C942        C  0.09521664  0.30665189  0.41684054    -0.12200
C943        C  0.11439516  0.28801773  0.40433571     0.13400
C944        C  0.13247924  0.27273867  0.42118930    -0.22700
C945        C  0.11373607  0.29901473  0.49313326    -0.05700
H946        H  0.08152111  0.32424797  0.45554723     0.15000
C947        C  0.11749008  0.28385370  0.37362695    -0.15900
H948        H  0.14670667  0.25807237  0.41184780     0.09300
H949        H  0.21043602  0.28597040  0.52080515     0.07100
H950        H  0.23018506  0.27524304  0.49101664     0.08300
H951        H  0.22912750  0.25368578  0.52128311     0.07400
H952        H  0.12036562  0.21693896  0.43694921     0.02300
H953        H  0.09996792  0.22876862  0.46602243     0.02800
H954        H  0.11604655  0.19498762  0.46666394     0.06300
H955        H  0.09774530  0.31428967  0.49954900     0.05200
H956        H  0.13404082  0.30678812  0.50041561    -0.00500
H957        H  0.10911604  0.27881807  0.50333916     0.00900
H958        H  0.13926446  0.28787256  0.36758577     0.04600
H959        H  0.10472101  0.29780854  0.36094854     0.06500
H960        H  0.11226468  0.26198064  0.36827353     0.07400
C961        C  0.25352717  0.19112669  0.37102541    -0.22200
C962        C  0.23864018  0.20967961  0.38759045     0.09800
C963        C  0.23032105  0.23552428  0.37661600     0.10200
C964        C  0.23869804  0.24307151  0.34989022    -0.17100
C965        C  0.25537397  0.22542990  0.33361717    -0.27500
C966        C  0.26183001  0.19842445  0.34411863     0.18500
C967        C  0.23418616  0.20284604  0.41714871     0.12500
C968        C  0.21298243  0.25535022  0.39339539    -0.11900
H969        H  0.23301524  0.26347485  0.34225768     0.12700
C970        C  0.27735107  0.17692457  0.32753224    -0.22700
H971        H  0.25942582  0.17111121  0.37958764     0.08400
C972        C  0.21154196  0.18682758  0.42631226     0.04700
C973        C  0.20793710  0.18217688  0.45476313    -0.20000
C974        C  0.22645357  0.19326952  0.47419121    -0.12200
C975        C  0.24939465  0.20893839  0.46480805     0.13400
C976        C  0.25297930  0.21339050  0.43644448    -0.22700
C977        C  0.19110992  0.17500020  0.40609068    -0.05700
H978        H  0.19039705  0.17017758  0.46190591     0.15000
C979        C  0.27032617  0.22167176  0.48405320    -0.15900
H980        H  0.27040220  0.22563667  0.42929568     0.09300
H981        H  0.27792896  0.15641399  0.33817166     0.07100
H982        H  0.29907154  0.18352565  0.32454273     0.08300
H983        H  0.26710422  0.17378608  0.30728405     0.07400
H984        H  0.22429022  0.26164673  0.41230191     0.02300
H985        H  0.19343559  0.24494394  0.39943462     0.02800
H986        H  0.20772345  0.27449348  0.38161922     0.06300
H987        H  0.17451404  0.16309883  0.41667205     0.05200
H988        H  0.20184830  0.16071764  0.39160553    -0.00500
H989        H  0.18136168  0.19215665  0.39420208     0.00900
H990        H  0.29103693  0.21285237  0.47954499     0.04600
H991        H  0.26569737  0.21793865  0.50613147     0.06500
H992        H  0.27108058  0.24455394  0.48076956     0.07400
C993        C  0.42930766  0.22276086  0.24783218    -0.22200
C994        C  0.41093884  0.20171276  0.24005593     0.09800
C995        C  0.42110286  0.17723983  0.22752416     0.10200
C996        C  0.44970714  0.17434911  0.22327429    -0.17100
C997        C  0.46818964  0.19536206  0.23146473    -0.27500
C998        C  0.45776024  0.21985338  0.24404354     0.18500
C999        C  0.38139667  0.20587512  0.24677370     0.12500
C1000       C  0.40182719  0.15423904  0.21895785    -0.11900
H1001       H  0.45772590  0.15559668  0.21373418     0.12700
C1002       C  0.47588813  0.24306798  0.25462669    -0.22700
H1003       H  0.42135173  0.24142131  0.25766509     0.08400
C1004       C  0.37151697  0.20098257  0.27368709     0.04700
C1005       C  0.34504402  0.21024042  0.28098174    -0.20000
C1006       C  0.32815943  0.22474975  0.26216526    -0.12200
C1007       C  0.33777174  0.22847998  0.23467822     0.13400
C1008       C  0.36426159  0.21887629  0.22739015    -0.22700
C1009       C  0.38932698  0.18675977  0.29498045    -0.05700
H1010       H  0.33811441  0.20722485  0.30202360     0.15000
C1011       C  0.32054026  0.24253585  0.21284328    -0.15900
H1012       H  0.37218248  0.22262334  0.20678095     0.09300
H1013       H  0.47219018  0.24597786  0.27705320     0.07100
H1014       H  0.47057065  0.26277785  0.24385844     0.08300
H1015       H  0.49821912  0.23906658  0.25178699     0.07400
H1016       H  0.38681659  0.16230547  0.20360712     0.02300
H1017       H  0.39044389  0.14631756  0.23724642     0.02800
H1018       H  0.41315859  0.13652024  0.20949624     0.06300
H1019       H  0.37841208  0.18441546  0.31501703     0.05200
H1020       H  0.40834461  0.19912752  0.29864278    -0.00500
H1021       H  0.39518206  0.16566476  0.28760351     0.00900
H1022       H  0.33053194  0.24149222  0.19222129     0.04600
H1023       H  0.31776104  0.26490813  0.21786443     0.06500
H1024       H  0.30012917  0.23212351  0.21129869     0.07400
C1025       C  0.62410797  0.21784402  0.25816177    -0.22200
C1026       C  0.64311761  0.20643892  0.23953574     0.09800
C1027       C  0.63368021  0.19057179  0.21693279     0.10200
C1028       C  0.60523420  0.18655953  0.21341614    -0.17100
C1029       C  0.58622284  0.19832329  0.23184323    -0.27500
C1030       C  0.59571634  0.21436207  0.25439625     0.18500
C1031       C  0.67265800  0.21295352  0.24338050     0.12500
C1032       C  0.65353479  0.17843606  0.19626801    -0.11900
H1033       H  0.59774166  0.17438704  0.19616787     0.12700
C1034       C  0.57655940  0.22863567  0.27448167    -0.22700
H1035       H  0.63150619  0.23014882  0.27540708     0.08400
C1036       C  0.68289971  0.23982761  0.23776561     0.04700
C1037       C  0.71056438  0.24580208  0.24339228    -0.20000
C1038       C  0.72840023  0.22569423  0.25467453    -0.12200
C1039       C  0.71841343  0.19815021  0.25864789     0.13400
C1040       C  0.69048698  0.19232820  0.25341657    -0.22700
C1041       C  0.66455320  0.26241641  0.22625902    -0.05700
H1042       H  0.71779721  0.26682110  0.24019321     0.15000
C1043       C  0.73644064  0.17413365  0.26739560    -0.15900
H1044       H  0.68253246  0.17154609  0.25722735     0.09300
H1045       H  0.58035483  0.25145413  0.27395517     0.07100
H1046       H  0.58066857  0.22089434  0.29568056     0.08300
H1047       H  0.55442799  0.22519323  0.26983092     0.07400
H1048       H  0.66759793  0.16350502  0.20666478     0.02300
H1049       H  0.66587906  0.19539990  0.18671509     0.02800
H1050       H  0.64258555  0.16711900  0.17954917     0.06300
H1051       H  0.67623066  0.28186380  0.22193359     0.05200
H1052       H  0.64794075  0.26752425  0.24119323    -0.00500
H1053       H  0.65509978  0.25524349  0.20670513     0.00900
H1054       H  0.72920693  0.16591916  0.28756341     0.04600
H1055       H  0.75856212  0.17967506  0.26887482     0.06500
H1056       H  0.73486256  0.15719305  0.25186877    -0.02600
C1057       C  0.42020051  0.27615912  0.13291912    -0.22200
C1058       C  0.44849209  0.27174911  0.12858535     0.09800
C1059       C  0.46127870  0.28265970  0.10475614     0.10200
C1060       C  0.44553049  0.29818137  0.08592486    -0.17100
C1061       C  0.41715493  0.30261889  0.09008455    -0.27500
C1062       C  0.40430489  0.29144310  0.11390437     0.18500
C1063       C  0.46450872  0.25563663  0.14919314     0.12500
C1064       C  0.49151674  0.27775683  0.09917900    -0.11900
H1065       H  0.45536363  0.30663716  0.06763422     0.12700
C1066       C  0.37419505  0.29648198  0.11991910    -0.22700
H1067       H  0.41060714  0.26773226  0.15134686     0.08400
C1068       C  0.47843574  0.26892405  0.17108799     0.04700
C1069       C  0.49471933  0.25297020  0.18909919    -0.20000
C1070       C  0.49648111  0.22389448  0.18639795    -0.12200
C1071       C  0.48215050  0.21057107  0.16460395     0.13400
C1072       C  0.46649497  0.22667876  0.14619237    -0.22700
C1073       C  0.47575099  0.29985045  0.17563621    -0.05700
H1074       H  0.50572370  0.26315624  0.20571964     0.15000
C1075       C  0.48311270  0.17953758  0.15987665    -0.15900
H1076       H  0.45580738  0.21658391  0.12927238     0.09300
H1077       H  0.36793394  0.28740886  0.14007201     0.07100
H1078       H  0.36123590  0.28674942  0.10370603     0.08300
H1079       H  0.37012013  0.31924501  0.12063104     0.07400
H1080       H  0.49558598  0.25503075  0.09769775     0.02300
H1081       H  0.50412343  0.28661808  0.11615686     0.02800
H1082       H  0.49824033  0.28762880  0.07955327     0.06300
H1083       H  0.48778633  0.30686643  0.19385252     0.05200
H1084       H  0.45373534  0.30523769  0.17918552    -0.00500
H1085       H  0.48338976  0.31132774  0.15726771     0.00900
H1086       H  0.46189413  0.17087405  0.16115710     0.04600
H1087       H  0.49613211  0.16836247  0.17504320     0.06500
H1088       H  0.49152780  0.17524725  0.13898932     0.07400
C1089       C  0.47356541  0.13989630  0.30383957    -0.22200
C1090       C  0.47007151  0.11271219  0.29389601     0.09800
C1091       C  0.48135574  0.10523525  0.26808595     0.10200
C1092       C  0.49560367  0.12533719  0.25257965    -0.17100
C1093       C  0.49883119  0.15265698  0.26235422    -0.27500
C1094       C  0.48807590  0.15992847  0.28851815     0.18500
C1095       C  0.45360095  0.09273977  0.31042581     0.12500
C1096       C  0.47814378  0.07615105  0.25687459    -0.11900
H1097       H  0.50405225  0.11985446  0.23257713     0.12700
C1098       C  0.49170115  0.18842900  0.30095066    -0.22700
H1099       H  0.46491015  0.14549963  0.32372697     0.08400
C1100       C  0.46568659  0.07599625  0.33099809     0.04700
C1101       C  0.44903115  0.05759488  0.34621945    -0.20000
C1102       C  0.42044825  0.05530155  0.34125623    -0.12200
C1103       C  0.40846001  0.07230119  0.32037232     0.13400
C1104       C  0.42524261  0.09085499  0.30544329    -0.22700
C1105       C  0.49620549  0.07738995  0.33664011    -0.05700
H1106       H  0.45858056  0.04461248  0.36182267     0.15000
C1107       C  0.37808962  0.07159080  0.31365272    -0.15900
H1108       H  0.41624334  0.10397943  0.28959487     0.09300
H1109       H  0.50213005  0.18650304  0.32125332     0.07100
H1110       H  0.47115461  0.19821883  0.30402740     0.08300
H1111       H  0.50446383  0.20238455  0.28795797     0.07400
H1112       H  0.45589633  0.07115654  0.25448646     0.02300
H1113       H  0.48768505  0.06093833  0.27125015     0.02800
H1114       H  0.48824705  0.07382798  0.23641525     0.06300
H1115       H  0.50245766  0.06284220  0.35334004     0.05200
H1116       H  0.50200318  0.09885169  0.34293710    -0.00500
H1117       H  0.50773812  0.07169879  0.31767798     0.00900
H1118       H  0.37249761  0.08725844  0.29771952     0.04600
H1119       H  0.36583261  0.07632860  0.33237054     0.06500
H1120       H  0.37232868  0.05082703  0.30540282     0.07400
C1121       C  0.58901016  0.11293294  0.26425559    -0.22200
C1122       C  0.59346326  0.11827156  0.29231478     0.09800
C1123       C  0.58040663  0.14133233  0.30486654     0.10200
C1124       C  0.56317743  0.15861460  0.28897918    -0.17100
C1125       C  0.55900286  0.15348003  0.26078267    -0.27500
C1126       C  0.57188554  0.13018168  0.24833738     0.18500
C1127       C  0.61063098  0.09845735  0.30843186     0.12500
C1128       C  0.58477961  0.14772249  0.33495983    -0.11900
H1129       H  0.55323215  0.17639849  0.29845632     0.12700
C1130       C  0.56776378  0.12269389  0.21841694    -0.22700
H1131       H  0.59875555  0.09499227  0.25477924     0.08400
C1132       C  0.59872504  0.07483175  0.32097739     0.04700
C1133       C  0.61541859  0.05664148  0.33627426    -0.20000
C1134       C  0.64393886  0.06117066  0.33908755    -0.12200
C1135       C  0.65598647  0.08484103  0.32625086     0.13400
C1136       C  0.63910842  0.10311252  0.31099099    -0.22700
C1137       C  0.56835154  0.06883402  0.31814242    -0.05700
H1138       H  0.60615508  0.03845038  0.34583511     0.15000
C1139       C  0.68611527  0.09220922  0.32894283    -0.15900
H1140       H  0.64816803  0.12132834  0.30127783     0.09300
H1141       H  0.55885457  0.10142136  0.21698876     0.07100
H1142       H  0.58797643  0.12294890  0.20759634     0.08300
H1143       H  0.55363039  0.13710159  0.20747571     0.07400
H1144       H  0.60705454  0.15147058  0.33887407     0.02300
H1145       H  0.57771602  0.12990072  0.34776155     0.02800
H1146       H  0.57314651  0.16655528  0.34148007     0.06300
H1147       H  0.56229048  0.04951092  0.32924017     0.05200
H1148       H  0.56298169  0.06623291  0.29602413    -0.00500
H1149       H  0.55629442  0.08641988  0.32683567     0.00900
H1150       H  0.69599889  0.09181950  0.30825913     0.04600
H1151       H  0.69761805  0.07803224  0.34275917     0.06500
H1152       H  0.68808431  0.11353104  0.33763354     0.07400
C1153       C  0.57861824  0.23368669  0.14274416    -0.22200
C1154       C  0.58784429  0.26016340  0.15073421     0.09800
C1155       C  0.58171985  0.27000949  0.17752798     0.10200
C1156       C  0.56623805  0.25319662  0.19560280    -0.17100
C1157       C  0.55703093  0.22667407  0.18757091    -0.27500
C1158       C  0.56371845  0.21662752  0.16095309     0.18500
C1159       C  0.60389685  0.27712086  0.13064612     0.12500
C1160       C  0.59204434  0.29793975  0.18722183    -0.11900
H1161       H  0.56151768  0.26058552  0.21621014     0.12700
C1162       C  0.55614398  0.18778546  0.15131993    -0.22700
H1163       H  0.58344571  0.22609943  0.12222502     0.08400
C1164       C  0.63144353  0.27056372  0.12380304     0.04700
C1165       C  0.64554566  0.28697528  0.10434623    -0.20000
C1166       C  0.63285534  0.30989981  0.09129085    -0.12200
C1167       C  0.60507417  0.31643569  0.09841160     0.13400
C1168       C  0.59106511  0.29986263  0.11787309    -0.22700
C1169       C  0.64607627  0.24636252  0.13718389    -0.05700
H1170       H  0.66670965  0.28170938  0.09930814     0.15000
C1171       C  0.58960167  0.34042386  0.08557322    -0.15900
H1172       H  0.56980311  0.30454506  0.12312330     0.09300
H1173       H  0.54537461  0.17537344  0.16730577     0.07100
H1174       H  0.54255665  0.18930403  0.13295229     0.08300
H1175       H  0.57519116  0.17629495  0.14554470     0.07400
H1176       H  0.58326894  0.31476007  0.17418295     0.02300
H1177       H  0.61492799  0.29853635  0.18587812     0.02800
H1178       H  0.58603975  0.30210211  0.20895925     0.06300
H1179       H  0.66786154  0.24466987  0.13020746     0.05200
H1180       H  0.63547474  0.22656061  0.13196642    -0.00500
H1181       H  0.64604336  0.24907373  0.15988288     0.00900
H1182       H  0.56797513  0.34166386  0.09312668     0.04600
H1183       H  0.58879662  0.33787705  0.06286306     0.06500
H1184       H  0.59982842  0.36040653  0.09089905     0.07400
C1185       C  0.25236918  0.40654765  0.26611179    -0.22200
C1186       C  0.24261847  0.38785493  0.24620365     0.09800
C1187       C  0.22879441  0.39814191  0.22270174     0.10200
C1188       C  0.22565701  0.42707902  0.21930409    -0.17100
C1189       C  0.23619041  0.44588963  0.23883100    -0.27500
C1190       C  0.24944587  0.43540706  0.26275772     0.18500
C1191       C  0.24817098  0.35770404  0.25023004     0.12500
C1192       C  0.21780059  0.37858668  0.20108814    -0.11900
H1193       H  0.21531857  0.43512582  0.20115146     0.12700
C1194       C  0.26147590  0.45388852  0.28485641    -0.22700
H1195       H  0.26291177  0.39852393  0.28418572     0.08400
C1196       C  0.27404198  0.34611173  0.24353363     0.04700
C1197       C  0.27965263  0.31829453  0.25059083    -0.20000
C1198       C  0.26008716  0.30159506  0.26446651    -0.12200
C1199       C  0.23346486  0.31302575  0.26971967     0.13400
C1200       C  0.22800461  0.34095104  0.26261784    -0.22700
C1201       C  0.29587544  0.36330541  0.22927246    -0.05700
H1202       H  0.29993563  0.30995196  0.24603685     0.15000
C1203       C  0.21046173  0.29619509  0.28245400    -0.15900
H1204       H  0.20806225  0.35005213  0.26736535     0.09300
H1205       H  0.28390012  0.44960174  0.28694045     0.07100
H1206       H  0.25133015  0.44927429  0.30490251     0.08300
H1207       H  0.25900457  0.47640187  0.28044145     0.07400
H1208       H  0.20236019  0.36434563  0.21048972     0.02300
H1209       H  0.23498874  0.36609669  0.19231413     0.02800
H1210       H  0.20765444  0.39003866  0.18394596     0.06300
H1211       H  0.31486204  0.35099952  0.22517081     0.05200
H1212       H  0.30161662  0.38138102  0.24235427    -0.00500
H1213       H  0.28786255  0.37103685  0.20921483     0.00900
H1214       H  0.21534560  0.29127668  0.30424300     0.04600
H1215       H  0.20731129  0.27668834  0.27054757     0.06500
H1216       H  0.19061605  0.30780998  0.28247246     0.07400
C1217       C  0.13799608  0.39935477  0.30940105    -0.22200
C1218       C  0.13306355  0.42804973  0.30739574     0.09800
C1219       C  0.10897805  0.43945937  0.31905231     0.10200
C1220       C  0.09038450  0.42198652  0.33275802    -0.17100
C1221       C  0.09512816  0.39323233  0.33497000    -0.27500
C1222       C  0.11944920  0.38172625  0.32328306     0.18500
C1223       C  0.15339537  0.44583981  0.29300608     0.12500
C1224       C  0.10328095  0.47018362  0.31763599    -0.11900
H1225       H  0.07204955  0.43090566  0.34197763     0.12700
C1226       C  0.12736079  0.35151372  0.32608211    -0.22700
H1227       H  0.15671727  0.39076206  0.30052554     0.08400
C1228       C  0.17602697  0.45770497  0.30704445     0.04700
C1229       C  0.19499655  0.47401670  0.29228260    -0.20000
C1230       C  0.19205383  0.47817681  0.26380821    -0.12200
C1231       C  0.16887173  0.46699923  0.24997469     0.13400
C1232       C  0.14981408  0.45093191  0.26479855    -0.22700
C1233       C  0.18035768  0.45274480  0.33742127    -0.05700
H1234       H  0.21257391  0.48291623  0.30283577     0.15000
C1235       C  0.16368237  0.47153153  0.21963147    -0.15900
H1236       H  0.13213970  0.44207794  0.25423557     0.09300
H1237       H  0.14782362  0.34992773  0.33628919     0.07100
H1238       H  0.12873150  0.34184389  0.30531473     0.08300
H1239       H  0.11261110  0.33944167  0.33864796     0.07400
H1240       H  0.10239428  0.47708196  0.29578131     0.02300
H1241       H  0.12013319  0.48128427  0.32844379     0.02800
H1242       H  0.08343921  0.47577477  0.32773124     0.06300
H1243       H  0.19915637  0.46348188  0.34510856     0.05200
H1244       H  0.18273351  0.43007549  0.34136703    -0.00500
H1245       H  0.16237201  0.46066767  0.34925161     0.00900
H1246       H  0.16324001  0.45110145  0.20889143     0.04600
H1247       H  0.17957055  0.48470992  0.20957541     0.06500
H1248       H  0.14341678  0.48197384  0.21685276     0.07400
C1249       C  0.30610873  0.44375698  0.17971014    -0.22200
C1250       C  0.29469261  0.44055862  0.15332306     0.09800
C1251       C  0.26901711  0.45296156  0.14722930     0.10200
C1252       C  0.25548394  0.46861842  0.16757462    -0.17100
C1253       C  0.26709050  0.47238970  0.19382368    -0.27500
C1254       C  0.29267616  0.45961509  0.20005778     0.18500
C1255       C  0.30981979  0.42404286  0.13230908     0.12500
C1256       C  0.25603017  0.44982386  0.11918295    -0.11900
H1257       H  0.23566083  0.47804320  0.16302042     0.12700
C1258       C  0.30640966  0.46231224  0.22773988    -0.22700
H1259       H  0.32574106  0.43397419  0.18437797     0.08400
C1260       C  0.33088429  0.43593743  0.11604060     0.04700
C1261       C  0.34420236  0.41955755  0.09598852    -0.20000
C1262       C  0.33664043  0.39156837  0.09137400    -0.12200
C1263       C  0.31500172  0.37991289  0.10764125     0.13400
C1264       C  0.30219877  0.39627351  0.12802372    -0.22700
C1265       C  0.33892874  0.46606822  0.11959014    -0.05700
H1266       H  0.36035773  0.42889309  0.08356194     0.15000
C1267       C  0.30511066  0.35031971  0.10407626    -0.15900
H1268       H  0.28579379  0.38749272  0.14055351     0.09300
H1269       H  0.32735569  0.47130627  0.22507493     0.07100
H1270       H  0.30833583  0.44137936  0.23733994     0.08300
H1271       H  0.29480767  0.47596132  0.24200892     0.07400
H1272       H  0.25208786  0.42745428  0.11487672     0.02300
H1273       H  0.27009327  0.45835261  0.10316139     0.02800
H1274       H  0.23606345  0.46111982  0.11778567     0.06300
H1275       H  0.35550613  0.47229700  0.10498173     0.05200
H1276       H  0.34651512  0.46960576  0.14091085    -0.00500
H1277       H  0.32073689  0.47962465  0.11580837     0.00900
H1278       H  0.32254159  0.33560306  0.10693858     0.04600
H1279       H  0.29593173  0.34763292  0.08327046     0.06500
H1280       H  0.28891092  0.34474564  0.11935797     0.07400
C1281       C  0.33230251  0.55664888  0.10927706    -0.22200
C1282       C  0.31938870  0.57292563  0.12946750     0.09800
C1283       C  0.32258281  0.60209808  0.12897001     0.10200
C1284       C  0.33858959  0.61441690  0.10812997    -0.17100
C1285       C  0.35156166  0.59827584  0.08764934    -0.27500
C1286       C  0.34804110  0.56885257  0.08812173     0.18500
C1287       C  0.30191843  0.55903121  0.15047862     0.12500
C1288       C  0.30890823  0.62019628  0.15033289    -0.11900
H1289       H  0.34110573  0.63687226  0.10792424     0.12700
C1290       C  0.35911741  0.54951436  0.06626572    -0.22700
H1291       H  0.32948291  0.53422303  0.10964953     0.08400
C1292       C  0.27465227  0.55068862  0.14444415     0.04700
C1293       C  0.25880835  0.53777293  0.16502259    -0.20000
C1294       C  0.26965430  0.53287517  0.19139689    -0.12200
C1295       C  0.29698565  0.54123764  0.19743878     0.13400
C1296       C  0.31276666  0.55428141  0.17686108    -0.22700
C1297       C  0.26221948  0.55569172  0.11640654    -0.05700
H1298       H  0.23783758  0.53134734  0.16052494     0.15000
C1299       C  0.31009802  0.53685461  0.22525477    -0.15900
H1300       H  0.33371570  0.56078741  0.18139917     0.09300
H1301       H  0.34181800  0.53736169  0.05724440     0.07100
H1302       H  0.37407252  0.53478767  0.07569050     0.08300
H1303       H  0.36935004  0.56036966  0.04904296     0.07400
H1304       H  0.31674565  0.61459280  0.17111469     0.02300
H1305       H  0.28620418  0.61704010  0.14973801     0.02800
H1306       H  0.31318053  0.64266330  0.14679457     0.06300
H1307       H  0.24054632  0.54820134  0.11531393     0.05200
H1308       H  0.27435018  0.54447761  0.10045356    -0.00500
H1309       H  0.26234597  0.57835236  0.11174276     0.00900
H1310       H  0.32901241  0.52401919  0.22289060     0.04600
H1311       H  0.29624830  0.52618689  0.24007062     0.06500
H1312       H  0.31591747  0.55734304  0.23417261     0.07400
C1313       C  0.12679712  0.61183800  0.30343492    -0.22200
C1314       C  0.13250426  0.58366081  0.30823883     0.09800
C1315       C  0.11751134  0.56922411  0.32866968     0.10200
C1316       C  0.09707911  0.58319328  0.34383454    -0.17100
C1317       C  0.09092445  0.61146397  0.33906252    -0.27500
C1318       C  0.10620128  0.62598224  0.31843415     0.18500
C1319       C  0.15407005  0.56939878  0.29155369     0.12500
C1320       C  0.12251295  0.53875585  0.33379305    -0.11900
H1321       H  0.08559011  0.57170141  0.35930883     0.12700
C1322       C  0.10149807  0.65638776  0.31215405    -0.22700
H1323       H  0.13854028  0.62278124  0.28775082     0.08400
C1324       C  0.14906193  0.56082755  0.26413256     0.04700
C1325       C  0.16934445  0.54552348  0.24998280    -0.20000
C1326       C  0.19457737  0.53882321  0.26252627    -0.12200
C1327       C  0.19981613  0.54791890  0.28977832     0.13400
C1328       C  0.17949416  0.56312987  0.30391261    -0.22700
C1329       C  0.12213867  0.56732886  0.25001625    -0.05700
H1330       H  0.16542281  0.53846155  0.22911745     0.15000
C1331       C  0.22642472  0.54176697  0.30464578    -0.15900
H1332       H  0.18332585  0.56979584  0.32493621     0.09300
H1333       H  0.11615140  0.66429850  0.29633188     0.07100
H1334       H  0.10447265  0.66898998  0.33113301     0.08300
H1335       H  0.08034581  0.65949040  0.30392778     0.07400
H1336       H  0.14397700  0.53537834  0.34104427     0.02300
H1337       H  0.11929050  0.52729410  0.31419049     0.02800
H1338       H  0.10822972  0.53015109  0.34959666     0.06300
H1339       H  0.12146706  0.55869596  0.22876272     0.05200
H1340       H  0.11934697  0.59024365  0.24857786    -0.00500
H1341       H  0.10476419  0.55819899  0.26194365     0.00900
H1342       H  0.23679193  0.56166132  0.31008062     0.04600
H1343       H  0.24097053  0.52914491  0.29217500     0.06500
H1344       H  0.22193207  0.53008848  0.32392069     0.07400
C1345       C  0.22669827  0.61370169  0.21794357    -0.22200
C1346       C  0.24523408  0.62376114  0.23782681     0.09800
C1347       C  0.26071016  0.60474829  0.25375877     0.10200
C1348       C  0.25678075  0.57612699  0.25002494    -0.17100
C1349       C  0.23792025  0.56591586  0.23064163    -0.27500
C1350       C  0.22284695  0.58488226  0.21411596     0.18500
C1351       C  0.24788830  0.65414433  0.24273751     0.12500
C1352       C  0.28138341  0.61467036  0.27480110    -0.11900
H1353       H  0.26827125  0.56154544  0.26262926     0.12700
C1354       C  0.20247665  0.57544768  0.19262191    -0.22700
H1355       H  0.21495128  0.62837782  0.20564334     0.08400
C1356       C  0.26643500  0.67062405  0.22747632     0.04700
C1357       C  0.27253729  0.69771326  0.23653160    -0.20000
C1358       C  0.26081922  0.70880449  0.26088161    -0.12200
C1359       C  0.24041320  0.69269490  0.27489527     0.13400
C1360       C  0.23430409  0.66567200  0.26550426    -0.22700
C1361       C  0.28064544  0.65914166  0.20230912    -0.05700
H1362       H  0.28756457  0.70972419  0.22499889     0.15000
C1363       C  0.22518216  0.70302221  0.30004575    -0.15900
H1364       H  0.21983569  0.65277761  0.27687479     0.09300
H1365       H  0.20898158  0.58331545  0.17206381     0.07100
H1366       H  0.18172615  0.58392899  0.19757385     0.08300
H1367       H  0.20077703  0.55244488  0.19137277     0.07400
H1368       H  0.27082061  0.62713644  0.29094746     0.02300
H1369       H  0.29730374  0.62772860  0.26454722     0.02800
H1370       H  0.29200282  0.59699209  0.28511624     0.06300
H1371       H  0.29475427  0.67464272  0.19274215     0.05200
H1372       H  0.26498834  0.65307714  0.18670991    -0.00500
H1373       H  0.29298145  0.64055905  0.20812694     0.00900
H1374       H  0.20902198  0.68810503  0.30689761     0.04600
H1375       H  0.21472327  0.72303877  0.29527677     0.06500
H1376       H  0.23968911  0.70560958  0.31756246     0.07400
C1377       C  0.27799357  0.79940829  0.38095850    -0.22200
C1378       C  0.25243513  0.79013782  0.39087030     0.09800
C1379       C  0.23446052  0.77576821  0.37303660     0.10200
C1380       C  0.24270611  0.77043468  0.34581686    -0.17100
C1381       C  0.26892233  0.77836933  0.33596522    -0.27500
C1382       C  0.28675234  0.79339329  0.35394497     0.18500
C1383       C  0.24607355  0.79323249  0.42065812     0.12500
C1384       C  0.20709883  0.76486718  0.38309611    -0.11900
H1385       H  0.22870167  0.75927562  0.33237081     0.12700
C1386       C  0.31541730  0.80225525  0.34566930    -0.22700
H1387       H  0.29162168  0.81048145  0.39490572     0.08400
C1388       C  0.25970737  0.77668832  0.44051937     0.04700
C1389       C  0.25277542  0.77961345  0.46839362    -0.20000
C1390       C  0.23229811  0.79831646  0.47695002    -0.12200
C1391       C  0.21834142  0.81467984  0.45711633     0.13400
C1392       C  0.22556634  0.81206070  0.42914792    -0.22700
C1393       C  0.28120815  0.75553040  0.43232924    -0.05700
H1394       H  0.26353103  0.76728220  0.48372560     0.15000
C1395       C  0.19586798  0.83494635  0.46472994    -0.15900
H1396       H  0.21504653  0.82465863  0.41384138     0.09300
H1397       H  0.32666841  0.81236595  0.36294162     0.07100
H1398       H  0.31410377  0.81767236  0.32874888     0.08300
H1399       H  0.32766542  0.78385506  0.33909477     0.07400
H1400       H  0.19376904  0.78242935  0.38974975     0.02300
H1401       H  0.21051698  0.75057732  0.40078782     0.02800
H1402       H  0.19595902  0.75316751  0.36676716     0.06300
H1403       H  0.28896319  0.74367483  0.45042772     0.05200
H1404       H  0.29911185  0.76610423  0.42260420    -0.00500
H1405       H  0.27217501  0.74041497  0.41752869     0.00900
H1406       H  0.20184333  0.85623947  0.45800310     0.04600
H1407       H  0.19177864  0.83555108  0.48722775     0.06500
H1408       H  0.17642116  0.82893150  0.45417855     0.07400
C1409       C  0.10658118  0.70719575  0.47216495    -0.22200
C1410       C  0.12859724  0.71920694  0.45768489     0.09800
C1411       C  0.13031667  0.71579000  0.42883689     0.10200
C1412       C  0.10979417  0.70051948  0.41504503    -0.17100
C1413       C  0.08758145  0.68851089  0.42945673    -0.27500
C1414       C  0.08580943  0.69228693  0.45843683     0.18500
C1415       C  0.14914595  0.73592681  0.47316549     0.12500
C1416       C  0.15362758  0.72853048  0.41262952    -0.11900
H1417       H  0.11115100  0.69782636  0.39287306     0.12700
C1418       C  0.06175455  0.68237449  0.47547655    -0.22700
H1419       H  0.10521268  0.71013809  0.49431391     0.08400
C1420       C  0.14311007  0.76323095  0.48218523     0.04700
C1421       C  0.16289134  0.77797161  0.49745539    -0.20000
C1422       C  0.18857267  0.76610060  0.50377717    -0.12200
C1423       C  0.19466683  0.73879424  0.49462960     0.13400
C1424       C  0.17484187  0.72406391  0.47938690    -0.22700
C1425       C  0.11593412  0.77688427  0.47545112    -0.05700
H1426       H  0.15829821  0.79886087  0.50461933     0.15000
C1427       C  0.22165215  0.72450349  0.50075176    -0.15900
H1428       H  0.17935256  0.70304999  0.47249629     0.09300
H1429       H  0.05253765  0.70030446  0.48667587     0.07100
H1430       H  0.06889122  0.66669925  0.49074556     0.08300
H1431       H  0.04525104  0.67312115  0.46285176     0.07400
H1432       H  0.17356702  0.71971561  0.41975224     0.02300
H1433       H  0.15375402  0.75146690  0.41568680     0.02800
H1434       H  0.15166745  0.72429767  0.39018568     0.06300
H1435       H  0.11484237  0.79849532  0.48359382     0.05200
H1436       H  0.09872481  0.76479242  0.48470941    -0.00500
H1437       H  0.11319606  0.77776665  0.45272011     0.00900
H1438       H  0.21764044  0.70482335  0.51213865     0.04600
H1439       H  0.23570416  0.73740974  0.51346782     0.06500
H1440       H  0.23231956  0.71948089  0.48108050     0.07400
C1441       C  0.30422870  0.85441250  0.48678043    -0.22200
C1442       C  0.29197263  0.87948275  0.47831233     0.09800
C1443       C  0.26429462  0.88510604  0.48550434     0.10200
C1444       C  0.24934837  0.86532071  0.50066535    -0.17100
C1445       C  0.26137418  0.84003715  0.50870489    -0.27500
C1446       C  0.28925335  0.83455922  0.50194346     0.18500
C1447       C  0.30826656  0.89942924  0.46151877     0.12500
C1448       C  0.25054077  0.91196802  0.47717615    -0.11900
H1449       H  0.22798185  0.86937488  0.50590749     0.12700
C1450       C  0.30364257  0.80795695  0.51005598    -0.22700
H1451       H  0.32552274  0.85020200  0.48126027     0.08400
C1452       C  0.32738498  0.91779842  0.47368147     0.04700
C1453       C  0.34167188  0.93693123  0.45704482    -0.20000
C1454       C  0.33701217  0.93849845  0.42842870    -0.12200
C1455       C  0.31787890  0.91971844  0.41623465     0.13400
C1456       C  0.30391896  0.90037222  0.43298851    -0.22700
C1457       C  0.33204470  0.91773839  0.50433809    -0.05700
H1458       H  0.35610337  0.95121315  0.46662393     0.15000
C1459       C  0.31228474  0.91936030  0.38563566    -0.15900
H1460       H  0.28922707  0.88603464  0.42386560     0.09300
H1461       H  0.32183364  0.81295471  0.52306703     0.07100
H1462       H  0.31075851  0.79690682  0.49121626     0.08300
H1463       H  0.29017808  0.79358323  0.52189363     0.07400
H1464       H  0.25003791  0.91367568  0.45434273     0.02300
H1465       H  0.26217705  0.92988819  0.48581022     0.02800
H1466       H  0.22895680  0.91314934  0.48486152     0.06300
H1467       H  0.34740172  0.93368856  0.51066709     0.05200
H1468       H  0.33971661  0.89701585  0.51104129    -0.00500
H1469       H  0.31225156  0.92235073  0.51492709     0.00900
H1470       H  0.29813390  0.90213154  0.37977352     0.04600
H1471       H  0.33191281  0.91640781  0.37413936     0.06500
H1472       H  0.30229316  0.93914175  0.37924353     0.07400
C1473       C  0.14424743  0.75608212  0.58817395    -0.22200
C1474       C  0.15109114  0.72802467  0.59225283     0.09800
C1475       C  0.17615910  0.71745496  0.58181876     0.10200
C1476       C  0.19403723  0.73541295  0.56763863    -0.17100
C1477       C  0.18729743  0.76354515  0.56369325    -0.27500
C1478       C  0.16203299  0.77403280  0.57393919     0.18500
C1479       C  0.13116213  0.71010341  0.60694302     0.12500
C1480       C  0.18409117  0.68739736  0.58589540    -0.11900
H1481       H  0.21345486  0.72754731  0.55980446     0.12700
C1482       C  0.15313072  0.80388175  0.57005849    -0.22700
H1483       H  0.12480455  0.76397943  0.59608227     0.08400
C1484       C  0.12931763  0.71015584  0.63594383     0.04700
C1485       C  0.10839377  0.69472441  0.64884359    -0.20000
C1486       C  0.08941577  0.67902945  0.63336333    -0.12200
C1487       C  0.09179183  0.67857664  0.60417124     0.13400
C1488       C  0.11266420  0.69421071  0.59138955    -0.22700
C1489       C  0.14955715  0.72636371  0.65316778    -0.05700
H1490       H  0.10689266  0.69488443  0.67116754     0.15000
C1491       C  0.07178505  0.66285484  0.58617438    -0.15900
H1492       H  0.11428340  0.69453996  0.56906827     0.09300
H1493       H  0.15018290  0.81381381  0.59054066     0.07100
H1494       H  0.13326296  0.80441676  0.55865449     0.08300
H1495       H  0.16827957  0.81648955  0.55829240     0.07400
H1496       H  0.16850677  0.67366349  0.57606251     0.02300
H1497       H  0.18514862  0.68262980  0.60829063     0.02800
H1498       H  0.20453677  0.68267661  0.57659564     0.06300
H1499       H  0.14547218  0.72389846  0.67559643     0.05200
H1500       H  0.14828271  0.74888235  0.64805470    -0.00500
H1501       H  0.17076418  0.71876483  0.64886274     0.00900
H1502       H  0.05044052  0.66997983  0.59054491     0.04600
H1503       H  0.07355376  0.64013222  0.59004029     0.06500
H1504       H  0.07589413  0.66634258  0.56387755     0.07400
C1505       C  0.26312738  0.88293420  0.59211888    -0.22200
C1506       C  0.28915558  0.87506005  0.60194850     0.09800
C1507       C  0.29973361  0.84841705  0.59565811     0.10200
C1508       C  0.28424754  0.83041685  0.57891890    -0.17100
C1509       C  0.25836733  0.83847500  0.56872087    -0.27500
C1510       C  0.24743762  0.86485822  0.57575872     0.18500
C1511       C  0.30541908  0.89564569  0.61776582     0.12500
C1512       C  0.32726961  0.83906874  0.60666397    -0.11900
H1513       H  0.29218602  0.80991279  0.57393295     0.12700
C1514       C  0.21922686  0.87445359  0.56669490    -0.22700
H1515       H  0.25505887  0.90338095  0.59719117     0.08400
C1516       C  0.32262282  0.91491438  0.60419413     0.04700
C1517       C  0.33728889  0.93457364  0.61969671    -0.20000
C1518       C  0.33480628  0.93584800  0.64858614    -0.12200
C1519       C  0.31732671  0.91641046  0.66218993     0.13400
C1520       C  0.30295598  0.89646072  0.64652590    -0.22700
C1521       C  0.32511738  0.91497445  0.57325752    -0.05700
H1522       H  0.35032883  0.94945521  0.60904276     0.15000
C1523       C  0.31413201  0.91589219  0.69309205    -0.15900
H1524       H  0.28959215  0.88150137  0.65668050     0.09300
H1525       H  0.22126766  0.89370017  0.55412634     0.07100
H1526       H  0.20643237  0.87913394  0.58514506     0.08300
H1527       H  0.20806518  0.85871074  0.55423906     0.07400
H1528       H  0.32684808  0.83930557  0.62957401     0.02300
H1529       H  0.34376389  0.85329868  0.59926260     0.02800
H1530       H  0.33242583  0.81759343  0.59983142     0.06300
H1531       H  0.33940360  0.93148049  0.56586482     0.05200
H1532       H  0.30450848  0.91879762  0.56400706    -0.00500
H1533       H  0.33305200  0.89453262  0.56603622     0.00900
H1534       H  0.30452111  0.93554119  0.70038635     0.04600
H1535       H  0.33463666  0.91306243  0.70278299     0.06500
H1536       H  0.30072321  0.89844836  0.70002799     0.07400
C1537       C  0.43333113  0.78383764  0.24386243    -0.22200
C1538       C  0.41408675  0.80110048  0.23068674     0.09800
C1539       C  0.42334228  0.82233169  0.21274855     0.10200
C1540       C  0.45179352  0.82596699  0.20876612    -0.17100
C1541       C  0.47096606  0.80838809  0.22168912    -0.27500
C1542       C  0.46161394  0.78674157  0.23911481     0.18500
C1543       C  0.38447416  0.79580078  0.23598284     0.12500
C1544       C  0.40336935  0.84067630  0.19736323    -0.11900
H1545       H  0.45914289  0.84265409  0.19562190     0.12700
C1546       C  0.48070928  0.76620413  0.25291124    -0.22700
H1547       H  0.42614211  0.76765593  0.25776141     0.08400
C1548       C  0.37208663  0.77050380  0.22796487     0.04700
C1549       C  0.34555956  0.76412180  0.23744777    -0.20000
C1550       C  0.33063533  0.78273254  0.25425213    -0.12200
C1551       C  0.34187497  0.80961919  0.25922625     0.13400
C1552       C  0.36908018  0.81530555  0.25098564    -0.22700
C1553       C  0.38679679  0.75023632  0.20931915    -0.05700
H1554       H  0.33702426  0.74384763  0.23254227     0.15000
C1555       C  0.32586759  0.83325597  0.27197355    -0.15900
H1556       H  0.37840208  0.83506710  0.25649146     0.09300
H1557       H  0.47584927  0.74485569  0.24553196     0.07100
H1558       H  0.47758006  0.76682417  0.27557864     0.08300
H1559       H  0.50281093  0.77026682  0.24865013     0.07400
H1560       H  0.39100545  0.85321670  0.21208327     0.02300
H1561       H  0.38935393  0.82758249  0.18470703     0.02800
H1562       H  0.41423891  0.85536227  0.18333927     0.06300
H1563       H  0.37350315  0.73222090  0.20380335     0.05200
H1564       H  0.40558380  0.74190519  0.21942379    -0.00500
H1565       H  0.39266036  0.76111694  0.18998616     0.00900
H1566       H  0.33570270  0.83957569  0.29166714     0.04600
H1567       H  0.30384172  0.82831489  0.27548961     0.06500
H1568       H  0.32629920  0.85141095  0.25774477     0.07400
C1569       C  0.69293979  0.81451315  0.24662979    -0.22200
C1570       C  0.67399296  0.79657227  0.23403117     0.09800
C1571       C  0.68224845  0.76944487  0.22640017     0.10200
C1572       C  0.70812873  0.75975533  0.23474639    -0.17100
C1573       C  0.72627927  0.77667662  0.24996139    -0.27500
C1574       C  0.71935785  0.80513795  0.25403524     0.18500
C1575       C  0.64488466  0.80520476  0.23188379     0.12500
C1576       C  0.66377769  0.74982477  0.21051665    -0.11900
H1577       H  0.71334548  0.73824129  0.23057991     0.12700
C1578       C  0.73921129  0.82633006  0.26552182    -0.22700
H1579       H  0.68681062  0.83571873  0.25142273     0.08400
C1580       C  0.62488264  0.79352051  0.24962249     0.04700
C1581       C  0.59700445  0.79847027  0.24439684    -0.20000
C1582       C  0.58874001  0.81607297  0.22290130    -0.12200
C1583       C  0.60883569  0.82985581  0.20672610     0.13400
C1584       C  0.63683967  0.82385879  0.21113945    -0.22700
C1585       C  0.63293093  0.77599617  0.27416672    -0.05700
H1586       H  0.58144402  0.78837786  0.25702357     0.15000
C1587       C  0.60153094  0.85080666  0.18485481    -0.15900
H1588       H  0.65240267  0.83334225  0.19806614     0.09300
H1589       H  0.73130148  0.83444059  0.28545844     0.07100
H1590       H  0.74101087  0.84401659  0.25083092     0.08300
H1591       H  0.76032109  0.81799967  0.26841469     0.07400
H1592       H  0.67445676  0.74305704  0.19137419     0.02300
H1593       H  0.64392393  0.75947501  0.20432858     0.02800
H1594       H  0.65921312  0.73115302  0.22327882     0.06300
H1595       H  0.61461710  0.76946998  0.28638173     0.05200
H1596       H  0.64668009  0.78824171  0.28790695    -0.00500
H1597       H  0.64384951  0.75689493  0.26736715     0.00900
H1598       H  0.61105189  0.87119073  0.19004502     0.04600
H1599       H  0.57898087  0.85398862  0.18295709     0.06500
H1600       H  0.60971430  0.84375270  0.16463929     0.07400
C1601       C  0.47963310  0.70408269  0.10576375    -0.22200
C1602       C  0.46430177  0.71697402  0.12671847     0.09800
C1603       C  0.43568492  0.71197432  0.12850199     0.10200
C1604       C  0.42286305  0.69475016  0.10893756    -0.17100
C1605       C  0.43790597  0.68232681  0.08740524    -0.27500
C1606       C  0.46685255  0.68707992  0.08583885     0.18500
C1607       C  0.47811531  0.73716359  0.14545869     0.12500
C1608       C  0.41865081  0.72506916  0.15097622    -0.11900
H1609       H  0.40079779  0.69117100  0.11030739     0.12700
C1610       C  0.48486266  0.67622314  0.06281967    -0.22700
H1611       H  0.50160019  0.70819034  0.10432424     0.08400
C1612       C  0.49220668  0.72853226  0.16943525     0.04700
C1613       C  0.50415058  0.74867145  0.18680581    -0.20000
C1614       C  0.50255406  0.77727787  0.18063359    -0.12200
C1615       C  0.48837405  0.78582626  0.15652678     0.13400
C1616       C  0.47633322  0.76566433  0.13933585    -0.22700
C1617       C  0.49444446  0.69811716  0.17671922    -0.05700
H1618       H  0.51487251  0.74207513  0.20528581     0.15000
C1619       C  0.48566892  0.81592098  0.14807192    -0.15900
H1620       H  0.46540593  0.77223638  0.12092945     0.09300
H1621       H  0.50058558  0.66180536  0.07143251     0.07100
H1622       H  0.49563881  0.69394939  0.05272913     0.08300
H1623       H  0.47336130  0.66524432  0.04646251     0.07400
H1624       H  0.41975280  0.74810939  0.14924886     0.02300
H1625       H  0.42669630  0.71854126  0.17142830     0.02800
H1626       H  0.39661108  0.71881007  0.14968647     0.06300
H1627       H  0.50601270  0.69491620  0.19624439     0.05200
H1628       H  0.50544966  0.68682538  0.16001273    -0.00500
H1629       H  0.47348572  0.68909727  0.17928208     0.00900
H1630       H  0.49466206  0.81887281  0.12720322     0.04600
H1631       H  0.49626057  0.83042932  0.16232826     0.06500
H1632       H  0.46348197  0.82167678  0.14729981     0.07400
C1633       C  0.46174012  0.92606562  0.31790233    -0.22200
C1634       C  0.44770692  0.90374326  0.30577128     0.09800
C1635       C  0.41944115  0.89953512  0.31132038     0.10200
C1636       C  0.40562005  0.91823221  0.32878891    -0.17100
C1637       C  0.41963387  0.94071348  0.34095949    -0.27500
C1638       C  0.44806737  0.94472353  0.33541106     0.18500
C1639       C  0.46334479  0.88524581  0.28720084     0.12500
C1640       C  0.40394953  0.87552950  0.29862376    -0.11900
H1641       H  0.38381820  0.91531880  0.33298058     0.12700
C1642       C  0.46385171  0.96927498  0.34677629    -0.22700
H1643       H  0.48346132  0.92903903  0.31332201     0.08400
C1644       C  0.46691033  0.89178924  0.25906405     0.04700
C1645       C  0.48393797  0.87485978  0.24278283    -0.20000
C1646       C  0.49698413  0.85134207  0.25395697    -0.12200
C1647       C  0.49289522  0.84452850  0.28208827     0.13400
C1648       C  0.47629474  0.86179248  0.29842170    -0.22700
C1649       C  0.45274160  0.91658517  0.24631763    -0.05700
H1650       H  0.48696801  0.87982385  0.22116514     0.15000
C1651       C  0.50546860  0.81929472  0.29558399    -0.15900
H1652       H  0.47347106  0.85698970  0.32011573     0.09300
H1653       H  0.48538974  0.96990734  0.33889753     0.07100
H1654       H  0.46490513  0.96795668  0.36960533     0.08300
H1655       H  0.45356245  0.98900662  0.34062061     0.07400
H1656       H  0.41348698  0.85551769  0.30506460     0.02300
H1657       H  0.40470492  0.87714039  0.27578691     0.02800
H1658       H  0.38193459  0.87529427  0.30507186     0.06300
H1659       H  0.45762087  0.91856830  0.22400123     0.05200
H1660       H  0.45949284  0.93597850  0.25681089    -0.00500
H1661       H  0.43002928  0.91437965  0.24849332     0.00900
H1662       H  0.51910284  0.82600187  0.31274641     0.04600
H1663       H  0.51778903  0.80649081  0.28110701     0.06500
H1664       H  0.48882365  0.80601297  0.30424741     0.07400
C1665       C  0.58319681  0.76939947  0.13786651    -0.22200
C1666       C  0.59248212  0.74402034  0.14870323     0.09800
C1667       C  0.58644241  0.73699615  0.17635861     0.10200
C1668       C  0.57164430  0.75593972  0.19266874    -0.17100
C1669       C  0.56227208  0.78134404  0.18178915    -0.27500
C1670       C  0.56791045  0.78806284  0.15395589     0.18500
C1671       C  0.60920253  0.72591780  0.13059793     0.12500
C1672       C  0.59504469  0.70973534  0.18915464    -0.11900
H1673       H  0.56697038  0.75069030  0.21393630     0.12700
C1674       C  0.55799501  0.81448964  0.14044824    -0.22700
H1675       H  0.58784697  0.77462692  0.11658276     0.08400
C1676       C  0.59705664  0.70516118  0.11407226     0.04700
C1677       C  0.61364007  0.69017649  0.09549846    -0.20000
C1678       C  0.64212409  0.69566692  0.09282888    -0.12200
C1679       C  0.65424087  0.71630450  0.11009769     0.13400
C1680       C  0.63753573  0.73103932  0.12872777    -0.22700
C1681       C  0.56654870  0.69919728  0.11582515    -0.05700
H1682       H  0.60407848  0.67449637  0.08256903     0.15000
C1683       C  0.68464206  0.72308294  0.10945729    -0.15900
H1684       H  0.64650221  0.74711006  0.14164827     0.09300
H1685       H  0.54432909  0.80914973  0.12286610     0.07100
H1686       H  0.57590343  0.82639060  0.13236386     0.08300
H1687       H  0.54640096  0.82819199  0.15471747     0.07400
H1688       H  0.60666534  0.69619926  0.17470666     0.02300
H1689       H  0.57638393  0.69817312  0.19599905     0.02800
H1690       H  0.60834282  0.71381496  0.20735197     0.06300
H1691       H  0.56025849  0.68239007  0.10138548     0.05200
H1692       H  0.55468279  0.71827154  0.11056895    -0.00500
H1693       H  0.56110002  0.69255571  0.13709720     0.00900
H1694       H  0.69035833  0.73854837  0.12552373     0.04600
H1695       H  0.69030709  0.73223466  0.08919420     0.06500
H1696       H  0.69688230  0.70394439  0.11334218     0.07400
C1697       C  0.59205611  0.92705396  0.32686654    -0.22200
C1698       C  0.60437654  0.91191852  0.30548015     0.09800
C1699       C  0.63300550  0.91443586  0.30087838     0.10200
C1700       C  0.64877931  0.93197465  0.31794173    -0.17100
C1701       C  0.63667221  0.94730040  0.33961602    -0.27500
C1702       C  0.60765983  0.94479867  0.34393374     0.18500
C1703       C  0.58706540  0.89304475  0.28841333     0.12500
C1704       C  0.64687680  0.89849466  0.27793336    -0.11900
H1705       H  0.67077813  0.93368178  0.31422913     0.12700
C1706       C  0.59255905  0.96110577  0.36585984    -0.22700
H1707       H  0.57000292  0.92496631  0.33014006     0.08400
C1708       C  0.58155288  0.86546310  0.29683808     0.04700
C1709       C  0.56677491  0.84767886  0.27925086    -0.20000
C1710       C  0.55698197  0.85686928  0.25355260    -0.12200
C1711       C  0.56175835  0.88482273  0.24550232     0.13400
C1712       C  0.57683370  0.90253741  0.26301768    -0.22700
C1713       C  0.59163993  0.85469180  0.32422389    -0.05700
H1714       H  0.56329041  0.82629434  0.28540131     0.15000
C1715       C  0.55154965  0.89654358  0.21853616    -0.15900
H1716       H  0.58096379  0.92380386  0.25666608     0.09300
H1717       H  0.59993019  0.95484595  0.38663469     0.07100
H1718       H  0.56994843  0.95726538  0.36528921     0.08300
H1719       H  0.59584489  0.98378721  0.36264885     0.07400
H1720       H  0.63785661  0.90466285  0.25778040     0.02300
H1721       H  0.64381510  0.87576558  0.28102367     0.02800
H1722       H  0.66942309  0.90263983  0.27716146     0.06300
H1723       H  0.58568438  0.83258359  0.32755236     0.05200
H1724       H  0.58257694  0.86729160  0.34117375    -0.00500
H1725       H  0.61449547  0.85612473  0.32515284     0.00900
H1726       H  0.53751192  0.91435594  0.22267070     0.04600
H1727       H  0.54008592  0.88108432  0.20600957     0.06500
H1728       H  0.56935480  0.90406028  0.20615225     0.07400
C1729       C  0.26799257  0.80074042  0.69231455    -0.22200
C1730       C  0.24440049  0.78723839  0.68242817     0.09800
C1731       C  0.22970302  0.76913601  0.69990529     0.10200
C1732       C  0.23966336  0.76387403  0.72656760    -0.17100
C1733       C  0.26446970  0.77583887  0.73627602    -0.27500
C1734       C  0.27828106  0.79544713  0.71896031     0.18500
C1735       C  0.23751326  0.78973770  0.65274297     0.12500
C1736       C  0.20402573  0.75458158  0.69000867    -0.11900
H1737       H  0.22831654  0.74941480  0.73947075     0.12700
C1738       C  0.30407124  0.81065707  0.72763863    -0.22700
H1739       H  0.27900705  0.81475114  0.67860975     0.08400
C1740       C  0.22024154  0.81097699  0.64240031     0.04700
C1741       C  0.21545719  0.81265227  0.61382689    -0.20000
C1742       C  0.22825007  0.79403871  0.59547347    -0.12200
C1743       C  0.24558784  0.77281387  0.60596730     0.13400
C1744       C  0.24964592  0.77072525  0.63448691    -0.22700
C1745       C  0.20745843  0.83213814  0.66142392    -0.05700
H1746       H  0.20239123  0.82900329  0.60566994     0.15000
C1747       C  0.26097386  0.75264494  0.58770789    -0.15900
H1748       H  0.26305625  0.75455905  0.64254611     0.09300
H1749       H  0.29979974  0.82296552  0.74652735     0.07100
H1750       H  0.31129319  0.82548665  0.71155917     0.08300
H1751       H  0.32109750  0.79563285  0.73130258     0.07400
H1752       H  0.20914090  0.74136726  0.67193226     0.02300
H1753       H  0.18827106  0.77021013  0.68393166     0.02800
H1754       H  0.19492751  0.74100398  0.70621193     0.06300
H1755       H  0.19466644  0.84745692  0.64994409     0.05200
H1756       H  0.22395809  0.84371341  0.67243465    -0.00500
H1757       H  0.19406836  0.82150936  0.67675749     0.00900
H1758       H  0.28349951  0.75479398  0.59135531     0.04600
H1759       H  0.25726719  0.75608361  0.56541144     0.06500
H1760       H  0.25464832  0.73100360  0.59283266     0.07400
C1761       C  0.43037520  0.80722922  0.85057911    -0.22200
C1762       C  0.42218259  0.79478014  0.82572067     0.09800
C1763       C  0.44200275  0.78934351  0.80508450     0.10200
C1764       C  0.46987748  0.79451098  0.81062016    -0.17100
C1765       C  0.47837244  0.80595736  0.83585736    -0.27500
C1766       C  0.45824655  0.81347589  0.85567288     0.18500
C1767       C  0.39281181  0.78748661  0.82149263     0.12500
C1768       C  0.43372602  0.77860427  0.77704660    -0.11900
H1769       H  0.48526294  0.78923799  0.79527276     0.12700
C1770       C  0.46534135  0.82865024  0.88190274    -0.22700
H1771       H  0.41492724  0.81219057  0.86601870     0.08400
C1772       C  0.38349700  0.75979731  0.82433503     0.04700
C1773       C  0.35619451  0.75328496  0.81723229    -0.20000
C1774       C  0.33769623  0.77393445  0.80804637    -0.12200
C1775       C  0.34655622  0.80211415  0.80759381     0.13400
C1776       C  0.37421022  0.80839234  0.81369714    -0.22700
C1777       C  0.40232892  0.73715403  0.83494292    -0.05700
H1778       H  0.34954560  0.73174398  0.81814771     0.15000
C1779       C  0.32746981  0.82623514  0.80191190    -0.15900
H1780       H  0.38132700  0.82978541  0.81242077     0.09300
H1781       H  0.45912442  0.81583831  0.89995715     0.07100
H1782       H  0.45398491  0.84874503  0.88255496     0.08300
H1783       H  0.48766155  0.83343037  0.88361225     0.07400
H1784       H  0.41932436  0.79360010  0.76719044     0.02300
H1785       H  0.42336474  0.75809038  0.77887750     0.02800
H1786       H  0.45186616  0.77604691  0.76323297     0.06300
H1787       H  0.39154896  0.71676946  0.83637059     0.05200
H1788       H  0.40981246  0.74275207  0.85585439    -0.00500
H1789       H  0.42036672  0.73452620  0.82109975     0.00900
H1790       H  0.30554266  0.82001948  0.80019670     0.04600
H1791       H  0.33393732  0.83693424  0.78264455     0.06500
H1792       H  0.32868847  0.84132545  0.81924047     0.07400
C1793       C  0.64492920  0.81827115  0.85201237    -0.22200
C1794       C  0.65409744  0.79824206  0.83300241     0.09800
C1795       C  0.63469096  0.78336544  0.81707981     0.10200
C1796       C  0.60657447  0.78902939  0.82027656    -0.17100
C1797       C  0.59723821  0.80882797  0.83933426    -0.27500
C1798       C  0.61658456  0.82365123  0.85551897     0.18500
C1799       C  0.68399660  0.79289265  0.82937771     0.12500
C1800       C  0.64365766  0.76146180  0.79666158    -0.11900
H1801       H  0.59163441  0.77778276  0.80791726     0.12700
C1802       C  0.60802370  0.84491701  0.87667418    -0.22700
H1803       H  0.65992333  0.82960143  0.86424414     0.08400
C1804       C  0.69978417  0.80837315  0.81041806     0.04700
C1805       C  0.72615118  0.79883438  0.80296820    -0.20000
C1806       C  0.73694216  0.77353028  0.81322780    -0.12200
C1807       C  0.72148591  0.75910380  0.83387469     0.13400
C1808       C  0.69542321  0.76925624  0.84176721    -0.22700
C1809       C  0.68819001  0.83421617  0.79704151    -0.05700
H1810       H  0.73777000  0.81073059  0.78796293     0.15000
C1811       C  0.73108769  0.73233114  0.84697400    -0.15900
H1812       H  0.68297066  0.75763145  0.85640548     0.09300
H1813       H  0.61712200  0.86546114  0.87131656     0.07100
H1814       H  0.61563392  0.83846076  0.89732142     0.08300
H1815       H  0.58532490  0.84741584  0.87798308     0.07400
H1816       H  0.65472362  0.74445272  0.80755369     0.02300
H1817       H  0.65756242  0.77088460  0.78100030     0.02800
H1818       H  0.62578439  0.75209269  0.78572092     0.06300
H1819       H  0.70311440  0.84381816  0.78244156     0.05200
H1820       H  0.68306550  0.84985524  0.81312696    -0.00500
H1821       H  0.66917918  0.82892571  0.78537676     0.00900
H1822       H  0.71643995  0.72470831  0.86294271     0.04600
H1823       H  0.75126338  0.73563879  0.85730634     0.06500
H1824       H  0.73260569  0.71580322  0.83104132     0.07400
C1825       C  0.48157355  0.73020734  0.88669778    -0.22200
C1826       C  0.48106813  0.73676895  0.91485630     0.09800
C1827       C  0.49466772  0.76088670  0.92436455     0.10200
C1828       C  0.50761586  0.77852209  0.90527095    -0.17100
C1829       C  0.50817772  0.77213403  0.87699770    -0.27500
C1830       C  0.49535052  0.74733475  0.86764963     0.18500
C1831       C  0.46575056  0.71834395  0.93400505     0.12500
C1832       C  0.49584294  0.76779842  0.95466518    -0.11900
H1833       H  0.51749076  0.79743753  0.91243259     0.12700
C1834       C  0.49611632  0.73794926  0.83802502    -0.22700
H1835       H  0.47130604  0.71146781  0.87957812     0.08400
C1836       C  0.43818773  0.72402930  0.94126211     0.04700
C1837       C  0.42464017  0.70652761  0.96007678    -0.20000
C1838       C  0.43782900  0.68315320  0.97182927    -0.12200
C1839       C  0.46547054  0.67713492  0.96375647     0.13400
C1840       C  0.47900844  0.69494394  0.94503279    -0.22700
C1841       C  0.42302326  0.74853229  0.92899995    -0.05700
H1842       H  0.40349039  0.71131426  0.96561327     0.15000
C1843       C  0.48119432  0.65238760  0.97472384    -0.15900
H1844       H  0.50018616  0.69075896  0.93904866     0.09300
H1845       H  0.50565441  0.71695190  0.83677076     0.07100
H1846       H  0.47474286  0.73668996  0.82986832     0.08300
H1847       H  0.50821729  0.75209760  0.82462039     0.07400
H1848       H  0.50619940  0.75060053  0.96597634     0.02300
H1849       H  0.47468700  0.77057709  0.96299913     0.02800
H1850       H  0.50759590  0.78728876  0.95853561     0.06300
H1851       H  0.40145225  0.74987948  0.93667759     0.05200
H1852       H  0.42237054  0.74646761  0.90620336    -0.00500
H1853       H  0.43367757  0.76825804  0.93438666     0.00900
H1854       H  0.47054168  0.63280011  0.96880072     0.04600
H1855       H  0.48294073  0.65377572  0.99750134     0.06500
H1856       H  0.50248746  0.65137626  0.96623499     0.07400
C1857       C  0.48846873  0.86736540  0.76474411    -0.22200
C1858       C  0.47430932  0.88859047  0.77870402     0.09800
C1859       C  0.47671614  0.89090877  0.80760679     0.10200
C1860       C  0.49307186  0.87168782  0.82196188    -0.17100
C1861       C  0.50729470  0.85044817  0.80804801    -0.27500
C1862       C  0.50490989  0.84816309  0.77904786     0.18500
C1863       C  0.45659873  0.90775617  0.76262198     0.12500
C1864       C  0.46227496  0.91378888  0.82323693    -0.11900
H1865       H  0.49470044  0.87310465  0.84421693     0.12700
C1866       C  0.51858816  0.82532865  0.76265849    -0.22700
H1867       H  0.48632359  0.86553717  0.74254831     0.08400
C1868       C  0.46799658  0.92897505  0.74606047     0.04700
C1869       C  0.45037996  0.94607545  0.73056429    -0.20000
C1870       C  0.42154483  0.94261240  0.73131638    -0.12200
C1871       C  0.41017484  0.92109959  0.74798296     0.13400
C1872       C  0.42793196  0.90412112  0.76349932    -0.22700
C1873       C  0.49870066  0.93385945  0.74514798    -0.05700
H1874       H  0.45920403  0.96258283  0.71806303     0.15000
C1875       C  0.37980486  0.91436086  0.74932568    -0.15900
H1876       H  0.41936620  0.88750385  0.77606638     0.09300
H1877       H  0.53311629  0.83465833  0.74751064     0.07100
H1878       H  0.50263998  0.81331895  0.75129400     0.08300
H1879       H  0.53019106  0.81044803  0.77573191     0.07400
H1880       H  0.43959675  0.91185365  0.82065504     0.02300
H1881       H  0.46912186  0.93438084  0.81530357     0.02800
H1882       H  0.46691519  0.91290108  0.84566445     0.06300
H1883       H  0.50416691  0.95176349  0.73166741     0.05200
H1884       H  0.50928860  0.91508586  0.73698112    -0.00500
H1885       H  0.50641988  0.93832968  0.76625746     0.00900
H1886       H  0.37657979  0.89215822  0.74369409     0.04600
H1887       H  0.36708893  0.92685133  0.73511375     0.06500
H1888       H  0.37214975  0.91769234  0.77067731     0.07400
C1889       C  0.58446546  0.90007745  0.80239936    -0.22200
C1890       C  0.59826910  0.89162083  0.77836697     0.09800
C1891       C  0.59686485  0.86343599  0.77004019     0.10200
C1892       C  0.58149858  0.84448732  0.78582308    -0.17100
C1893       C  0.56771783  0.85281819  0.80991510    -0.27500
C1894       C  0.56941736  0.88098407  0.81845681     0.18500
C1895       C  0.61437422  0.91250305  0.76251065     0.12500
C1896       C  0.61126408  0.85261271  0.74463252    -0.11900
H1897       H  0.58031801  0.82293335  0.77926958     0.12700
C1898       C  0.55618972  0.89150558  0.84460872    -0.22700
H1899       H  0.58574474  0.92167100  0.80885633     0.08400
C1900       C  0.60193074  0.92921253  0.74211951     0.04700
C1901       C  0.61835674  0.94734295  0.72631641    -0.20000
C1902       C  0.64706698  0.94947159  0.73055127    -0.12200
C1903       C  0.65933949  0.93302419  0.75169342     0.13400
C1904       C  0.64279548  0.91467834  0.76720107    -0.22700
C1905       C  0.57131816  0.92770006  0.73696966    -0.05700
H1906       H  0.60858227  0.96006026  0.71063922     0.15000
C1907       C  0.68982574  0.93397651  0.75786116    -0.15900
H1908       H  0.65209195  0.90166884  0.78296230     0.09300
H1909       H  0.54090085  0.90795606  0.83949555     0.07100
H1910       H  0.57227937  0.90057081  0.85821553     0.08300
H1911       H  0.54550791  0.87491754  0.85641546     0.07400
H1912       H  0.62614398  0.83608437  0.75064091     0.02300
H1913       H  0.59576904  0.84357011  0.73033626     0.02800
H1914       H  0.62276918  0.86896183  0.73326984     0.06300
H1915       H  0.56477616  0.94209853  0.72025583     0.05200
H1916       H  0.56002972  0.93349644  0.75606834    -0.00500
H1917       H  0.56549283  0.90616910  0.73092021     0.00900
H1918       H  0.69573538  0.91868339  0.77403395     0.04600
H1919       H  0.69561412  0.95495485  0.76556321     0.06500
H1920       H  0.70179098  0.92893652  0.73897400     0.07400
C1921       C  0.59147174  0.73246387  0.89152097    -0.22200
C1922       C  0.59870515  0.74406540  0.91703417     0.09800
C1923       C  0.59038197  0.77142519  0.92362750     0.10200
C1924       C  0.57521977  0.78674478  0.90430663    -0.17100
C1925       C  0.56791431  0.77519512  0.87878356    -0.27500
C1926       C  0.57602594  0.74767307  0.87228154     0.18500
C1927       C  0.61471506  0.72710637  0.93677306     0.12500
C1928       C  0.59708473  0.78424786  0.95118589    -0.11900
H1929       H  0.56880462  0.80782265  0.90916623     0.12700
C1930       C  0.56902099  0.73384295  0.84531738    -0.22700
H1931       H  0.59791916  0.71139358  0.88662654     0.08400
C1932       C  0.60203616  0.70605369  0.95254987     0.04700
C1933       C  0.61783079  0.69122599  0.97179386    -0.20000
C1934       C  0.64602875  0.69711193  0.97596008    -0.12200
C1935       C  0.65871191  0.71826542  0.95975108     0.13400
C1936       C  0.64282938  0.73280061  0.94025655    -0.22700
C1937       C  0.57169058  0.69969409  0.94951577    -0.05700
H1938       H  0.60781180  0.67525393  0.98404781     0.15000
C1939       C  0.68884189  0.72568506  0.96241387    -0.15900
H1940       H  0.65226141  0.74902915  0.92782919     0.09300
H1941       H  0.55714924  0.74756259  0.83131258     0.07100
H1942       H  0.58834611  0.72775391  0.83455023     0.08300
H1943       H  0.55659028  0.71483020  0.84934911     0.07400
H1944       H  0.61979637  0.78565318  0.95381443     0.02300
H1945       H  0.58825868  0.77123298  0.96797401     0.02800
H1946       H  0.58842953  0.80559827  0.95312600     0.06300
H1947       H  0.56491490  0.68298577  0.96388122     0.05200
H1948       H  0.56727499  0.69265698  0.92816002    -0.00500
H1949       H  0.55935944  0.71867912  0.95400034     0.00900
H1950       H  0.70174359  0.70693103  0.95884051     0.04600
H1951       H  0.69299608  0.73435549  0.98322289     0.06500
H1952       H  0.69517827  0.74172550  0.94712110     0.07400
C1953       C  0.25742167  0.19455379  0.69269886    -0.22200
C1954       C  0.24092895  0.21328981  0.67801138     0.09800
C1955       C  0.23146586  0.23772177  0.69098695     0.10200
C1956       C  0.23953992  0.24335313  0.71824764    -0.17100
C1957       C  0.25724542  0.22528970  0.73298660    -0.27500
C1958       C  0.26580569  0.20010984  0.71991799     0.18500
C1959       C  0.23524704  0.20757409  0.64850944     0.12500
C1960       C  0.21326417  0.25809645  0.67583517    -0.11900
H1961       H  0.23251080  0.26253797  0.72768427     0.12700
C1962       C  0.28365481  0.17870700  0.73401879    -0.22700
H1963       H  0.26436537  0.17573892  0.68243266     0.08400
C1964       C  0.25336192  0.21705364  0.62772788     0.04700
C1965       C  0.24747290  0.21106973  0.60005164    -0.20000
C1966       C  0.22437107  0.19508345  0.59266664    -0.12200
C1967       C  0.20659676  0.18497567  0.61359162     0.13400
C1968       C  0.21208391  0.19167367  0.64127653    -0.22700
C1969       C  0.27907390  0.23319542  0.63481537    -0.05700
H1970       H  0.26105515  0.21878898  0.58397445     0.15000
C1971       C  0.18207965  0.16678398  0.60758566    -0.15900
H1972       H  0.19844807  0.18410000  0.65737330     0.09300
H1973       H  0.28668960  0.15984916  0.72106772     0.07100
H1974       H  0.27366550  0.17190517  0.75349987     0.08300
H1975       H  0.30444655  0.18746184  0.73810607     0.07400
H1976       H  0.19392516  0.24757736  0.66930194     0.02300
H1977       H  0.22415878  0.26608845  0.65728712     0.02800
H1978       H  0.20761727  0.27620211  0.68895207     0.06300
H1979       H  0.29103793  0.23889793  0.61607750     0.05200
H1980       H  0.29257610  0.22036641  0.64828158    -0.00500
H1981       H  0.27348465  0.25268687  0.64579885     0.00900
H1982       H  0.18423597  0.14674187  0.61884112     0.04600
H1983       H  0.18000728  0.16198006  0.58537354     0.06500
H1984       H  0.16295029  0.17736770  0.61463093     0.07400
C1985       C  0.25782570  0.39867851  0.80755511    -0.22200
C1986       C  0.23990356  0.38200901  0.82309449     0.09800
C1987       C  0.22087341  0.39453802  0.84126971     0.10200
C1988       C  0.21995523  0.42373570  0.84316461    -0.17100
C1989       C  0.23766601  0.44047818  0.82726243    -0.27500
C1990       C  0.25692876  0.42774962  0.80930135     0.18500
C1991       C  0.24177048  0.35147996  0.81950356     0.12500
C1992       C  0.20147910  0.37710874  0.85833547    -0.11900
H1993       H  0.20530926  0.43359107  0.85697890     0.12700
C1994       C  0.27672430  0.44400879  0.79152417    -0.22700
H1995       H  0.27251290  0.38885697  0.79371756     0.08400
C1996       C  0.23005354  0.33828609  0.79639649     0.04700
C1997       C  0.23668012  0.31039658  0.79085203    -0.20000
C1998       C  0.25532530  0.29536546  0.80755469    -0.12200
C1999       C  0.26531031  0.30832429  0.83211977     0.13400
C2000       C  0.25834045  0.33621088  0.83760553    -0.22700
C2001       C  0.21118631  0.35397091  0.77713392    -0.05700
H2002       H  0.22819559  0.30087322  0.77247005     0.15000
C2003       C  0.28374680  0.29370838  0.85260885    -0.15900
H2004       H  0.26697707  0.34667671  0.85545380     0.09300
H2005       H  0.27318893  0.43878472  0.76951011     0.07100
H2006       H  0.29822289  0.43815838  0.79685920     0.08300
H2007       H  0.27456237  0.46683877  0.79392799     0.07400
H2008       H  0.21350304  0.36321792  0.87215996     0.02300
H2009       H  0.18834320  0.36422586  0.84457638     0.02800
H2010       H  0.18775566  0.39023357  0.87131856     0.06300
H2011       H  0.20346144  0.34049268  0.76019016     0.05200
H2012       H  0.22237916  0.37178849  0.76770829    -0.00500
H2013       H  0.19309836  0.36197633  0.78877982     0.00900
H2014       H  0.30434357  0.28990565  0.84340450     0.04600
H2015       H  0.27414459  0.27378871  0.85924981     0.06500
H2016       H  0.28716468  0.30647010  0.87142695     0.07400
C2017       C  0.22134917  0.60788991  0.83995932    -0.22200
C2018       C  0.24367350  0.61884850  0.82505836     0.09800
C2019       C  0.26293317  0.60074819  0.81262687     0.10200
C2020       C  0.25912388  0.57200379  0.81485243    -0.17100
C2021       C  0.23673617  0.56085864  0.82944957    -0.27500
C2022       C  0.21776445  0.57895191  0.84255914     0.18500
C2023       C  0.24654607  0.64928238  0.82164230     0.12500
C2024       C  0.28747110  0.61177954  0.79688253    -0.11900
H2025       H  0.27370946  0.55803010  0.80504611     0.12700
C2026       C  0.19388796  0.56850879  0.85957107    -0.22700
H2027       H  0.20670536  0.62196243  0.84956565     0.08400
C2028       C  0.23584060  0.66273596  0.79821410     0.04700
C2029       C  0.24393723  0.69011732  0.79238356    -0.20000
C2030       C  0.26291731  0.70443340  0.80928478    -0.12200
C2031       C  0.27167211  0.69147168  0.83427274     0.13400
C2032       C  0.26335246  0.66399892  0.83997305    -0.22700
C2033       C  0.21648090  0.64777887  0.77897890    -0.05700
H2034       H  0.23631065  0.69974225  0.77365981     0.15000
C2035       C  0.28996814  0.70581202  0.85504161    -0.15900
H2036       H  0.27114237  0.65337365  0.85812619     0.09300
H2037       H  0.17420910  0.57592145  0.85040875     0.07100
H2038       H  0.19561945  0.57674300  0.88090483     0.08300
H2039       H  0.19312875  0.54547016  0.86082804     0.07400
H2040       H  0.30048950  0.62467109  0.81074077     0.02300
H2041       H  0.28038183  0.62471381  0.77926562     0.02800
H2042       H  0.30048964  0.59467400  0.78855516     0.06300
H2043       H  0.20972636  0.66128816  0.76163319     0.05200
H2044       H  0.19793752  0.64125397  0.79074968    -0.00500
H2045       H  0.22669858  0.62906571  0.77018056     0.00900
H2046       H  0.28086158  0.72619572  0.86093886     0.04600
H2047       H  0.31098204  0.70876768  0.84643761     0.06500
H2048       H  0.29228398  0.69329176  0.87419854     0.07400
C2049       C  0.17782632  0.45031577  0.75422825    -0.22200
C2050       C  0.15411054  0.44137378  0.76822558     0.09800
C2051       C  0.15122471  0.44682498  0.79666297     0.10200
C2052       C  0.17213140  0.46135252  0.81046974    -0.17100
C2053       C  0.19584749  0.47047599  0.79651452    -0.27500
C2054       C  0.19880783  0.46481280  0.76802510     0.18500
C2055       C  0.13262472  0.42604123  0.75280175     0.12500
C2056       C  0.12594463  0.43761657  0.81231600    -0.11900
H2057       H  0.16995226  0.46581962  0.83229219     0.12700
C2058       C  0.22368512  0.47350832  0.75157577    -0.22700
H2059       H  0.17997893  0.44588823  0.73238529     0.08400
C2060       C  0.11328158  0.44001484  0.73606899     0.04700
C2061       C  0.09312291  0.42447868  0.72207677    -0.20000
C2062       C  0.09161131  0.39530330  0.72474619    -0.12200
C2063       C  0.11106990  0.38142767  0.74181254     0.13400
C2064       C  0.13143031  0.39702924  0.75540743    -0.22700
C2065       C  0.11372136  0.47131406  0.73334854    -0.05700
H2066       H  0.07821772  0.43525467  0.70925009     0.15000
C2067       C  0.11117852  0.35021465  0.74531616    -0.15900
H2068       H  0.14649966  0.38659178  0.76833097     0.09300
H2069       H  0.21713002  0.48747856  0.73454233     0.07100
H2070       H  0.23362216  0.45478713  0.74250236     0.08300
H2071       H  0.23922177  0.48457901  0.76416900     0.07400
H2072       H  0.12415548  0.41456576  0.81160743     0.02300
H2073       H  0.10725504  0.44707533  0.80293284     0.02800
H2074       H  0.12682577  0.44401631  0.83432137     0.06300
H2075       H  0.09681188  0.47898615  0.71987375     0.05200
H2076       H  0.13364539  0.47813756  0.72424386    -0.00500
H2077       H  0.11123762  0.48104154  0.75399523     0.00900
H2078       H  0.11285814  0.34007124  0.72482642     0.04600
H2079       H  0.09201034  0.34334446  0.75587065     0.06500
H2080       H  0.12886982  0.34304075  0.75805062     0.07400
C2081       C  0.32268894  0.43718015  0.95458751    -0.22200
C2082       C  0.31248032  0.42328826  0.93133706     0.09800
C2083       C  0.31563572  0.39415938  0.92909436     0.10200
C2084       C  0.32869403  0.37943692  0.95048479    -0.17100
C2085       C  0.33881133  0.39324023  0.97397264    -0.27500
C2086       C  0.33552671  0.42255553  0.97614156     0.18500
C2087       C  0.29724197  0.43948361  0.91025509     0.12500
C2088       C  0.30520916  0.37871022  0.90411100    -0.11900
H2089       H  0.33130336  0.35706603  0.94873252     0.12700
C2090       C  0.34393911  0.43909270  0.00125243    -0.22700
H2091       H  0.31987317  0.45954005  0.95628418     0.08400
C2092       C  0.26853353  0.44375484  0.91251452     0.04700
C2093       C  0.25473640  0.45870620  0.89186378    -0.20000
C2094       C  0.26899296  0.46986444  0.86918908    -0.12200
C2095       C  0.29789187  0.46583805  0.86711463     0.13400
C2096       C  0.31163546  0.45062656  0.88771310    -0.22700
C2097       C  0.25250921  0.43260114  0.93677980    -0.05700
H2098       H  0.23263913  0.46187280  0.89345381     0.15000
C2099       C  0.31485913  0.47702112  0.84355816    -0.15900
H2100       H  0.33373155  0.44733622  0.88614677     0.09300
H2101       H  0.32587661  0.45099016  0.00904661     0.07100
H2102       H  0.36048214  0.45405318  0.99554125     0.08300
H2103       H  0.35126273  0.42606970  0.01860106     0.07400
H2104       H  0.31555322  0.38679204  0.88527701     0.02300
H2105       H  0.28257255  0.38165521  0.90203931     0.02800
H2106       H  0.30939493  0.35599456  0.90555331     0.06300
H2107       H  0.23021959  0.43783604  0.93533350     0.05200
H2108       H  0.26066483  0.44173829  0.95617346    -0.00500
H2109       H  0.25447575  0.40957180  0.93769821     0.00900
H2110       H  0.33075755  0.49152557  0.85167510     0.04600
H2111       H  0.30231728  0.48838969  0.82814923     0.06500
H2112       H  0.32545815  0.45953864  0.83294781     0.07400
C2113       C  0.18063224  0.55872299  0.75673420    -0.22200
C2114       C  0.15324326  0.55851086  0.76617984     0.09800
C2115       C  0.14682162  0.54451259  0.79097594     0.10200
C2116       C  0.16790594  0.53113404  0.80581038    -0.17100
C2117       C  0.19533412  0.53106508  0.79636600    -0.27500
C2118       C  0.20174436  0.54503333  0.77137307     0.18500
C2119       C  0.13141956  0.57259503  0.74961071     0.12500
C2120       C  0.11764877  0.54359643  0.80169284    -0.11900
H2121       H  0.16295332  0.52047615  0.82490737     0.12700
C2122       C  0.23037760  0.54562668  0.75927500    -0.22700
H2123       H  0.18551178  0.56938853  0.73760792     0.08400
C2124       C  0.12483490  0.60093037  0.75349296     0.04700
C2125       C  0.10349870  0.61310923  0.73792409    -0.20000
C2126       C  0.08849517  0.59773164  0.71818141    -0.12200
C2127       C  0.09537992  0.56913008  0.71433238     0.13400
C2128       C  0.11666697  0.55707193  0.73013027    -0.22700
C2129       C  0.14061210  0.61833332  0.77390577    -0.05700
H2130       H  0.09877595  0.63495675  0.74105699     0.15000
C2131       C  0.08026264  0.55076548  0.69415797    -0.15900
H2132       H  0.12183428  0.53526264  0.72738559     0.09300
H2133       H  0.23772447  0.56751661  0.75806405     0.07100
H2134       H  0.22998715  0.53681431  0.73811080     0.08300
H2135       H  0.24541258  0.53343925  0.77152242     0.07400
H2136       H  0.10409404  0.53324566  0.78633941     0.02300
H2137       H  0.11007192  0.56510380  0.80541388     0.02800
H2138       H  0.11617290  0.53182662  0.82138376     0.06300
H2139       H  0.13309830  0.64019677  0.77446757     0.05200
H2140       H  0.16268704  0.61854002  0.76789956    -0.00500
H2141       H  0.13855116  0.60935742  0.79492719     0.00900
H2142       H  0.08365599  0.55833208  0.67278142     0.04600
H2143       H  0.05789449  0.55066250  0.69905476     0.06500
H2144       H  0.08762666  0.52885462  0.69500521     0.07400
C2145       C  0.27660681  0.54927829  0.91575037    -0.22200
C2146       C  0.30232990  0.55982547  0.90760252     0.09800
C2147       C  0.31154675  0.55578642  0.88029663     0.10200
C2148       C  0.29478593  0.54113985  0.86169966    -0.17100
C2149       C  0.26900392  0.53053041  0.86976199    -0.27500
C2150       C  0.25974509  0.53474206  0.89715275     0.18500
C2151       C  0.31967657  0.57414059  0.92836367     0.12500
C2152       C  0.33908240  0.56684104  0.87086257    -0.11900
H2153       H  0.30187484  0.53787570  0.84076123     0.12700
C2154       C  0.23231077  0.52421555  0.90748840    -0.22700
H2155       H  0.26968492  0.55235621  0.93681591     0.08400
C2156       C  0.31725604  0.60293575  0.93339359     0.04700
C2157       C  0.33355007  0.61524016  0.95402592    -0.20000
C2158       C  0.35243927  0.59948540  0.96975504    -0.12200
C2159       C  0.35506085  0.57050700  0.96411775     0.13400
C2160       C  0.33850692  0.55831014  0.94361189    -0.22700
C2161       C  0.29741176  0.62060483  0.91702317    -0.05700
H2162       H  0.33149530  0.63739995  0.95780283     0.15000
C2163       C  0.37459762  0.55191310  0.97979507    -0.15900
H2164       H  0.34011655  0.53616043  0.93945520     0.09300
H2165       H  0.21976783  0.54202334  0.91501335     0.07100
H2166       H  0.23571890  0.50950173  0.92485272     0.08300
H2167       H  0.22022644  0.51326991  0.89140932     0.07400
H2168       H  0.35582826  0.55743184  0.88341184     0.02300
H2169       H  0.33963362  0.58983754  0.87327175     0.02800
H2170       H  0.34309551  0.56187717  0.84883473     0.06300
H2171       H  0.29810874  0.64280446  0.92347617     0.05200
H2172       H  0.27601522  0.61287363  0.92003560    -0.00500
H2173       H  0.30267425  0.61958023  0.89474597     0.00900
H2174       H  0.37298249  0.52981383  0.97314801     0.04600
H2175       H  0.36967062  0.55268230  0.00208803     0.06500
H2176       H  0.39623160  0.55861400  0.97621174     0.07400
C2177       C  0.42914268  0.21107468  0.80286642    -0.22200
C2178       C  0.41138908  0.20218196  0.82387611     0.09800
C2179       C  0.42232064  0.18953924  0.84775558     0.10200
C2180       C  0.45104779  0.18645828  0.85019675    -0.17100
C2181       C  0.46894022  0.19656322  0.82967390    -0.27500
C2182       C  0.45776707  0.20906439  0.80565126     0.18500
C2183       C  0.38176046  0.20892904  0.82106701     0.12500
C2184       C  0.40376711  0.18019582  0.87090305    -0.11900
H2185       H  0.45966739  0.17681556  0.86849476     0.12700
C2186       C  0.47516174  0.22178477  0.78308620    -0.22700
H2187       H  0.42055732  0.22097633  0.78465603     0.08400
C2188       C  0.37251640  0.23658012  0.82427102     0.04700
C2189       C  0.34523395  0.24320507  0.81750583    -0.20000
C2190       C  0.32670192  0.22281327  0.80794652    -0.12200
C2191       C  0.33547924  0.19462751  0.80693129     0.13400
C2192       C  0.36313736  0.18815622  0.81292762    -0.22700
C2193       C  0.39161243  0.25925480  0.83433222    -0.05700
H2194       H  0.33882187  0.26479197  0.81845769     0.15000
C2195       C  0.31630934  0.17081037  0.80048124    -0.15900
H2196       H  0.37028500  0.16682534  0.81102232     0.09300
H2197       H  0.46988654  0.24419494  0.78086570     0.07100
H2198       H  0.47067246  0.21122789  0.76321203     0.08300
H2199       H  0.49761238  0.22041214  0.78712947     0.07400
H2200       H  0.38919681  0.16409842  0.86327602     0.02300
H2201       H  0.39188124  0.19826432  0.87890261     0.02800
H2202       H  0.41573493  0.17113055  0.88826921     0.06300
H2203       H  0.38075655  0.27953167  0.83646403     0.05200
H2204       H  0.40889358  0.26221028  0.81957753    -0.00500
H2205       H  0.40008976  0.25349339  0.85484515     0.00900
H2206       H  0.32268953  0.16073489  0.78086964     0.04600
H2207       H  0.29445593  0.17735738  0.79900425     0.06500
H2208       H  0.31741883  0.15513422  0.81731619     0.07400
C2209       C  0.42590909  0.09990661  0.75195496    -0.22200
C2210       C  0.45462187  0.09639989  0.75224513     0.09800
C2211       C  0.46659878  0.07366659  0.73825931     0.10200
C2212       C  0.44951265  0.05498888  0.72399306    -0.17100
C2213       C  0.42064114  0.05806326  0.72401597    -0.27500
C2214       C  0.40867643  0.08092837  0.73815900     0.18500
C2215       C  0.47155531  0.11620144  0.76837821     0.12500
C2216       C  0.49730328  0.06874763  0.73896572    -0.11900
H2217       H  0.45872469  0.03737414  0.71343275     0.12700
C2218       C  0.37793949  0.08586534  0.73837687    -0.22700
H2219       H  0.41696884  0.11744257  0.76287504     0.08400
C2220       C  0.48376977  0.13982886  0.75607849     0.04700
C2221       C  0.49884509  0.15838217  0.77257055    -0.20000
C2222       C  0.50117459  0.15434514  0.80114361    -0.12200
C2223       C  0.48935117  0.13036143  0.81333372     0.13400
C2224       C  0.47466047  0.11158703  0.79675604    -0.22700
C2225       C  0.48017653  0.14592752  0.72579646    -0.05700
H2226       H  0.50816463  0.17655810  0.76324002     0.15000
C2227       C  0.49195444  0.12386996  0.84365687    -0.15900
H2228       H  0.46533054  0.09330691  0.80606754     0.09300
H2229       H  0.37252209  0.10566647  0.74895302     0.07100
H2230       H  0.36733612  0.06874820  0.74955604     0.08300
H2231       H  0.37010972  0.08706787  0.71687741     0.07400
H2232       H  0.50419793  0.06604532  0.76064558     0.02300
H2233       H  0.50827745  0.08677128  0.72976514     0.02800
H2234       H  0.50324577  0.04979186  0.72722812     0.06300
H2235       H  0.49077618  0.16551927  0.71968332     0.05200
H2236       H  0.45788019  0.14818977  0.72100496    -0.00500
H2237       H  0.48886506  0.12871900  0.71324278     0.00900
H2238       H  0.47108650  0.12297307  0.85312141     0.04600
H2239       H  0.50432570  0.13948514  0.85508388     0.06500
H2240       H  0.50216588  0.10331856  0.84626449     0.07400
C2241       C  0.46710203  0.26810715  0.88699773    -0.22200
C2242       C  0.46444584  0.25729287  0.91370231     0.09800
C2243       C  0.47689832  0.23159894  0.92037054     0.10200
C2244       C  0.49237718  0.21758269  0.90022689    -0.17100
C2245       C  0.49562564  0.22865043  0.87360110    -0.27500
C2246       C  0.48259382  0.25416167  0.86682871     0.18500
C2247       C  0.44880881  0.27346978  0.93446107     0.12500
C2248       C  0.47366671  0.21894804  0.94864201    -0.11900
H2249       H  0.50194487  0.19777570  0.90518243     0.12700
C2250       C  0.48460824  0.26736943  0.83876298    -0.22700
H2251       H  0.45725821  0.28776860  0.88196302     0.08400
C2252       C  0.46209509  0.29272533  0.95190534     0.04700
C2253       C  0.44646706  0.30750282  0.97141605    -0.20000
C2254       C  0.41772548  0.30373004  0.97379111    -0.12200
C2255       C  0.40440071  0.28468823  0.95565528     0.13400
C2256       C  0.42022252  0.26979249  0.93631936    -0.22700
C2257       C  0.49273766  0.29785063  0.94969053    -0.05700
H2258       H  0.45689008  0.32201626  0.98500523     0.15000
C2259       C  0.37356045  0.28032646  0.95578930    -0.15900
H2260       H  0.41027308  0.25516847  0.92246262     0.09300
H2261       H  0.49332665  0.28867105  0.84069310     0.07100
H2262       H  0.46367818  0.26889078  0.82956284     0.08300
H2263       H  0.49793446  0.25544392  0.82451775     0.07400
H2264       H  0.45144939  0.21530395  0.95300178     0.02300
H2265       H  0.48221216  0.23321685  0.96448954     0.02800
H2266       H  0.48464220  0.19869210  0.95033525     0.06300
H2267       H  0.49987224  0.31369063  0.96479274     0.05200
H2268       H  0.49784276  0.30546955  0.92865495    -0.00500
H2269       H  0.50424521  0.27825543  0.95364301     0.00900
H2270       H  0.36685593  0.26609523  0.93900393     0.04600
H2271       H  0.36287000  0.30056911  0.95271545     0.06500
H2272       H  0.36699402  0.27076759  0.97558924     0.07400
C2273       C  0.64037717  0.10145865  0.75901403    -0.22200
C2274       C  0.61174101  0.10133289  0.75509237     0.09800
C2275       C  0.60003156  0.08284315  0.73581758     0.10200
C2276       C  0.61724870  0.06468874  0.72094319    -0.17100
C2277       C  0.64606473  0.06422075  0.72502989    -0.27500
C2278       C  0.65773425  0.08310568  0.74439444     0.18500
C2279       C  0.59431040  0.12059641  0.77156431     0.12500
C2280       C  0.56928177  0.08204499  0.73128294    -0.11900
H2281       H  0.60795279  0.05033480  0.70640844     0.12700
C2282       C  0.68836494  0.08455620  0.74961887    -0.22700
H2283       H  0.64913293  0.11588548  0.77383386     0.08400
C2284       C  0.58441746  0.11310519  0.79795248     0.04700
C2285       C  0.56765485  0.13183113  0.81259773    -0.20000
C2286       C  0.56102070  0.15805745  0.80169037    -0.12200
C2287       C  0.57084503  0.16553023  0.77518187     0.13400
C2288       C  0.58736817  0.14664738  0.76045087    -0.22700
C2289       C  0.59166429  0.08541407  0.81064935    -0.05700
H2290       H  0.55989847  0.12615508  0.83282925     0.15000
C2291       C  0.56424661  0.19308838  0.76180437    -0.15900
H2292       H  0.59490231  0.15226695  0.74011427     0.09300
H2293       H  0.69564325  0.06477494  0.75898660     0.07100
H2294       H  0.69373570  0.10162357  0.76414044     0.08300
H2295       H  0.69947555  0.08850084  0.72994455     0.07400
H2296       H  0.56196334  0.10272671  0.72405943     0.02300
H2297       H  0.55869943  0.07673636  0.75092392     0.02800
H2298       H  0.56337277  0.06625250  0.71561430     0.06300
H2299       H  0.58224735  0.08288942  0.83141302     0.05200
H2300       H  0.61441103  0.08369582  0.81286688    -0.00500
H2301       H  0.58410756  0.06824896  0.79729656     0.00900
H2302       H  0.58369440  0.20464068  0.75773441     0.04600
H2303       H  0.55071066  0.20640737  0.77469898     0.06500
H2304       H  0.55357758  0.18940952  0.74186784     0.07400
C2305       C  0.58611430  0.29510472  0.95577519    -0.22200
C2306       C  0.60000418  0.27967963  0.93556997     0.09800
C2307       C  0.62908961  0.28015577  0.93461768     0.10200
C2308       C  0.64376756  0.29550553  0.95440913    -0.17100
C2309       C  0.63002009  0.31084979  0.97493976    -0.27500
C2310       C  0.60070957  0.31082372  0.97542620     0.18500
C2311       C  0.58377999  0.26299667  0.91558970     0.12500
C2312       C  0.64456942  0.26444153  0.91265617    -0.11900
H2313       H  0.66614119  0.29565311  0.95373859     0.12700
C2314       C  0.58461564  0.32627965  0.99717384    -0.22700
H2315       H  0.56373628  0.29463169  0.95625123     0.08400
C2316       C  0.57545710  0.23547377  0.92159819     0.04700
C2317       C  0.56167977  0.21988365  0.90132699    -0.20000
C2318       C  0.55561094  0.23139029  0.87539552    -0.12200
C2319       C  0.56325072  0.25929626  0.86974934     0.13400
C2320       C  0.57738956  0.27467465  0.88989225    -0.22700
C2321       C  0.58130624  0.22256923  0.94931165    -0.05700
H2322       H  0.55562984  0.19858089  0.90566623     0.15000
C2323       C  0.55709217  0.27349566  0.84276504    -0.15900
H2324       H  0.58370789  0.29588749  0.88544570     0.09300
H2325       H  0.56204441  0.32267784  0.99522247     0.07100
H2326       H  0.58820821  0.34903547  0.99522474     0.08300
H2327       H  0.59108486  0.31898933  0.01790002     0.07400
H2328       H  0.63845945  0.27240048  0.89203502     0.02300
H2329       H  0.63963934  0.24187796  0.91399153     0.02800
H2330       H  0.66726316  0.26695360  0.91479892     0.06300
H2331       H  0.57341889  0.20086722  0.95060404     0.05200
H2332       H  0.57115397  0.23498933  0.96577259    -0.00500
H2333       H  0.60391367  0.22214601  0.95303420     0.00900
H2334       H  0.54423483  0.29224396  0.84660198     0.04600
H2335       H  0.54594903  0.25987106  0.82811522     0.06500
H2336       H  0.57672060  0.28013455  0.83289363     0.07400
C2337       C  0.80869020  0.19645386  0.69138524    -0.22200
C2338       C  0.82119169  0.21765178  0.67587383     0.09800
C2339       C  0.82789510  0.24315502  0.68869807     0.10200
C2340       C  0.81972705  0.24768185  0.71604630    -0.17100
C2341       C  0.80559451  0.22710785  0.73128620    -0.27500
C2342       C  0.80191165  0.20039658  0.71927014     0.18500
C2343       C  0.82533440  0.21353798  0.64587663     0.12500
C2344       C  0.84356275  0.26572289  0.67361098    -0.11900
H2345       H  0.82347635  0.26797793  0.72506863     0.12700
C2346       C  0.79204737  0.17524523  0.73509384    -0.22700
H2347       H  0.80403034  0.17667594  0.68164043     0.08400
C2348       C  0.84389958  0.19357678  0.63514373     0.04700
C2349       C  0.84648741  0.19075242  0.60642840    -0.20000
C2350       C  0.83178028  0.20816696  0.58841768    -0.12200
C2351       C  0.81371436  0.22852956  0.59923916     0.13400
C2352       C  0.81017120  0.23037768  0.62777366    -0.22700
C2353       C  0.86159673  0.17595700  0.65380852    -0.05700
H2354       H  0.86033354  0.17521714  0.59795094     0.15000
C2355       C  0.79810271  0.24891921  0.58145629    -0.15900
H2356       H  0.79570106  0.24547515  0.63604537     0.09300
H2357       H  0.80736300  0.15817588  0.73275306     0.07100
H2358       H  0.77204176  0.16799406  0.72658504     0.08300
H2359       H  0.78999747  0.17900372  0.75751983     0.07400
H2360       H  0.83128466  0.27387975  0.65609501     0.02300
H2361       H  0.86337440  0.25720823  0.66572774     0.02800
H2362       H  0.84839451  0.28361359  0.68732085     0.06300
H2363       H  0.87593387  0.16251024  0.64185184     0.05200
H2364       H  0.84850611  0.16215890  0.66669128    -0.00500
H2365       H  0.87415004  0.18962987  0.66736925     0.00900
H2366       H  0.77562742  0.24685190  0.58537583     0.04600
H2367       H  0.80171931  0.24587749  0.55910163     0.06500
H2368       H  0.80445299  0.27046385  0.58685164     0.07400
C2369       C  0.68249892  0.20264692  0.78890945    -0.22200
C2370       C  0.67385189  0.20957418  0.81560924     0.09800
C2371       C  0.69279652  0.22149381  0.83419420     0.10200
C2372       C  0.71952491  0.22787803  0.82507384    -0.17100
C2373       C  0.72776184  0.22305335  0.79762481    -0.27500
C2374       C  0.70905906  0.20947384  0.77946089     0.18500
C2375       C  0.64413833  0.20709929  0.82243940     0.12500
C2376       C  0.68438685  0.22885851  0.86317824    -0.11900
H2377       H  0.73379298  0.23762360  0.83932372     0.12700
C2378       C  0.71602080  0.20325021  0.74978839    -0.22700
H2379       H  0.66779027  0.19310518  0.77494338     0.08400
C2380       C  0.62465497  0.22515502  0.81019763     0.04700
C2381       C  0.59663929  0.22157592  0.81604977    -0.20000
C2382       C  0.58757991  0.20085850  0.83425404    -0.12200
C2383       C  0.60707756  0.18356576  0.84755128     0.13400
C2384       C  0.63521385  0.18669910  0.84121617    -0.22700
C2385       C  0.63329561  0.24835192  0.79102984    -0.05700
H2386       H  0.58159783  0.23451688  0.80568040     0.15000
C2387       C  0.59888645  0.16167524  0.86826959    -0.15900
H2388       H  0.65023383  0.17302980  0.85078514     0.09300
H2389       H  0.69835476  0.19374584  0.73861865     0.07100
H2390       H  0.73330077  0.18817242  0.74892072     0.08300
H2391       H  0.72164675  0.22276597  0.73881811     0.07400
H2392       H  0.67822691  0.20977624  0.87457050     0.02300
H2393       H  0.66673573  0.24353491  0.86243672     0.02800
H2394       H  0.70144043  0.23896946  0.87475964     0.06300
H2395       H  0.61540148  0.26117713  0.78438383     0.05200
H2396       H  0.64305646  0.23964356  0.77220747    -0.00500
H2397       H  0.64817014  0.26227019  0.80169042     0.00900
H2398       H  0.60572705  0.14086687  0.86093976     0.04600
H2399       H  0.57628395  0.16090398  0.87181576     0.06500
H2400       H  0.60899446  0.16618493  0.88833199     0.07400
C2401       C  0.79614654  0.33640348  0.83643379    -0.22200
C2402       C  0.81315353  0.35237720  0.81922555     0.09800
C2403       C  0.82353196  0.34072681  0.79471708     0.10200
C2404       C  0.81582018  0.31366640  0.78727296    -0.17100
C2405       C  0.79774051  0.29767116  0.80371201    -0.27500
C2406       C  0.78829644  0.30913299  0.82911830     0.18500
C2407       C  0.81861693  0.38190098  0.82616005     0.12500
C2408       C  0.84268151  0.35703908  0.77634120    -0.11900
H2409       H  0.82350415  0.30538889  0.76794827     0.12700
C2410       C  0.77018822  0.29309027  0.84884227    -0.22700
H2411       H  0.78848868  0.34561531  0.85537814     0.08400
C2412       C  0.80113760  0.40320128  0.81635942     0.04700
C2413       C  0.80795101  0.43104059  0.82158816    -0.20000
C2414       C  0.83171870  0.43814109  0.83651212    -0.12200
C2415       C  0.84891460  0.41676667  0.84692753     0.13400
C2416       C  0.84225829  0.38882823  0.84136249    -0.22700
C2417       C  0.77542946  0.39653607  0.80017409    -0.05700
H2418       H  0.79473848  0.44747166  0.81380786     0.15000
C2419       C  0.87402832  0.42264498  0.86423774    -0.15900
H2420       H  0.85560949  0.37234104  0.84884402     0.09300
H2421       H  0.76690196  0.30461045  0.86845394     0.07100
H2422       H  0.78000910  0.27284197  0.85402205     0.08300
H2423       H  0.74954817  0.28960135  0.83957741     0.07400
H2424       H  0.86132940  0.36271430  0.78832527     0.02300
H2425       H  0.83236363  0.37632624  0.76900743     0.02800
H2426       H  0.84928401  0.34484023  0.75801080     0.06300
H2427       H  0.76407081  0.41570603  0.79414306     0.05200
H2428       H  0.76141013  0.38345238  0.81287399    -0.00500
H2429       H  0.78095901  0.38507006  0.78106530     0.00900
H2430       H  0.87188366  0.41205185  0.88450574     0.04600
H2431       H  0.87702539  0.44517941  0.86824333     0.06500
H2432       H  0.89269732  0.41452944  0.85362310     0.07400
C2433       C  0.83757218  0.65802702  0.80099147    -0.22200
C2434       C  0.82246378  0.64414814  0.82139232     0.09800
C2435       C  0.80077893  0.65798312  0.83494601     0.10200
C2436       C  0.79386256  0.68516996  0.82694003    -0.17100
C2437       C  0.80767294  0.69895209  0.80518692    -0.27500
C2438       C  0.83056916  0.68518894  0.79259086     0.18500
C2439       C  0.82789865  0.61426470  0.82648181     0.12500
C2440       C  0.78432562  0.64363341  0.85725918    -0.11900
H2441       H  0.77687734  0.69521647  0.83736903     0.12700
C2442       C  0.84775266  0.69826185  0.77009781    -0.22700
H2443       H  0.85434046  0.64705570  0.79088853     0.08400
C2444       C  0.81584229  0.59372015  0.80955360     0.04700
C2445       C  0.82023349  0.56559102  0.81566451    -0.20000
C2446       C  0.83646219  0.55747766  0.83821745    -0.12200
C2447       C  0.84860200  0.57804710  0.85520104     0.13400
C2448       C  0.84412616  0.60630120  0.84909121    -0.22700
C2449       C  0.79798757  0.60149161  0.78529686    -0.05700
H2450       H  0.81080543  0.54969431  0.80286449     0.15000
C2451       C  0.86617351  0.57101509  0.87979477    -0.15900
H2452       H  0.85316718  0.62222442  0.86212612     0.09300
H2453       H  0.86563405  0.68498657  0.76429693     0.07100
H2454       H  0.85609830  0.71857794  0.77720623     0.08300
H2455       H  0.83508601  0.70098746  0.75123572     0.07400
H2456       H  0.79814946  0.63772677  0.87456054     0.02300
H2457       H  0.77448604  0.62455410  0.84882201     0.02800
H2458       H  0.76778489  0.65726731  0.86561881     0.06300
H2459       H  0.78993643  0.58278862  0.77445919     0.05200
H2460       H  0.81018745  0.61388878  0.77026569    -0.00500
H2461       H  0.78008698  0.61400944  0.79246306     0.00900
H2462       H  0.88685434  0.58068383  0.87738244     0.04600
H2463       H  0.86904653  0.54829956  0.88244939     0.06500
H2464       H  0.85633630  0.57936366  0.89877271     0.07400
C2465       C  0.88661555  0.44645671  0.76118333    -0.22200
C2466       C  0.91385652  0.44225646  0.76998401     0.09800
C2467       C  0.92187912  0.45079645  0.79662622     0.10200
C2468       C  0.90230646  0.46303059  0.81408193    -0.17100
C2469       C  0.87504481  0.46727656  0.80539020    -0.27500
C2470       C  0.86710687  0.45917629  0.77848466     0.18500
C2471       C  0.93336250  0.42733525  0.75175257     0.12500
C2472       C  0.95103685  0.44683469  0.80667467    -0.11900
H2473       H  0.90833872  0.46959231  0.83458473     0.12700
C2474       C  0.83854328  0.46407072  0.76723224    -0.22700
H2475       H  0.88059181  0.43982607  0.74066745     0.08400
C2476       C  0.93337553  0.39801993  0.75055258     0.04700
C2477       C  0.95364702  0.38433931  0.73508142    -0.20000
C2478       C  0.97389916  0.39929415  0.72053864    -0.12200
C2479       C  0.97342230  0.42886044  0.72113963     0.13400
C2480       C  0.95310058  0.44250296  0.73685692    -0.22700
C2481       C  0.91209837  0.38121151  0.76586365    -0.05700
H2482       H  0.95373049  0.36175126  0.73444169     0.15000
C2483       C  0.99479867  0.44616824  0.70635470    -0.15900
H2484       H  0.95289045  0.46507156  0.73802811     0.09300
H2485       H  0.82886030  0.44375685  0.76205518     0.07100
H2486       H  0.83990758  0.47692225  0.74821555     0.08300
H2487       H  0.82490189  0.47514551  0.78195191     0.07400
H2488       H  0.96550936  0.45858742  0.79323064     0.02300
H2489       H  0.95648879  0.42436387  0.80619473     0.02800
H2490       H  0.95369253  0.45445645  0.82814911     0.06300
H2491       H  0.91513109  0.35844879  0.76299780     0.05200
H2492       H  0.89132806  0.38672577  0.75796260    -0.00500
H2493       H  0.91318492  0.38584939  0.78828755     0.00900
H2494       H  0.99309645  0.44298176  0.68374365     0.04600
H2495       H  0.01579032  0.44021855  0.71343300     0.06500
H2496       H  0.99202447  0.46878832  0.71039564     0.07400
C2497       C  0.75683460  0.45022537  0.89215180    -0.22200
C2498       C  0.76856247  0.43560381  0.91426373     0.09800
C2499       C  0.79730567  0.43678523  0.91866635     0.10200
C2500       C  0.81373934  0.45271481  0.90084601    -0.17100
C2501       C  0.80205456  0.46769851  0.87892497    -0.27500
C2502       C  0.77325524  0.46617408  0.87426122     0.18500
C2503       C  0.75029305  0.42040259  0.93357756     0.12500
C2504       C  0.81052862  0.42152029  0.94238277    -0.11900
H2505       H  0.83586356  0.45357124  0.90403501     0.12700
C2506       C  0.75928249  0.48049953  0.85038635    -0.22700
H2507       H  0.73470999  0.44921533  0.88889055     0.08400
C2508       C  0.73749303  0.43433530  0.95572064     0.04700
C2509       C  0.72154558  0.41917443  0.97459944    -0.20000
C2510       C  0.71852439  0.39020055  0.97215287    -0.12200
C2511       C  0.73087048  0.37625496  0.94948799     0.13400
C2512       C  0.74659461  0.39162780  0.93039602    -0.22700
C2513       C  0.74108956  0.46517682  0.95960389    -0.05700
H2514       H  0.71199007  0.42991856  0.99180021     0.15000
C2515       C  0.72701345  0.34543077  0.94487675    -0.15900
H2516       H  0.75638405  0.38116617  0.91314743     0.09300
H2517       H  0.74388085  0.49564234  0.85834615     0.07100
H2518       H  0.74846809  0.46475767  0.83754848     0.08300
H2519       H  0.77391580  0.49180293  0.83681978     0.07400
H2520       H  0.80663357  0.39881030  0.94038711     0.02300
H2521       H  0.80172282  0.42903904  0.96218807     0.02800
H2522       H  0.83321698  0.42484484  0.94294651     0.06300
H2523       H  0.72987579  0.47286591  0.97809437     0.05200
H2524       H  0.73294403  0.47622398  0.94122223    -0.00500
H2525       H  0.76332906  0.47017539  0.96213252     0.00900
H2526       H  0.73659097  0.33849594  0.92520352     0.04600
H2527       H  0.70464236  0.34042518  0.94398311     0.06500
H2528       H  0.73684318  0.33346033  0.96180823     0.07400
C2529       C  0.79708516  0.54598235  0.92836015    -0.22200
C2530       C  0.77383568  0.56057974  0.91901851     0.09800
C2531       C  0.76636361  0.55907662  0.89093011     0.10200
C2532       C  0.78253070  0.54320772  0.87273402    -0.17100
C2533       C  0.80590998  0.52866114  0.88199043    -0.27500
C2534       C  0.81326126  0.53005922  0.91023508     0.18500
C2535       C  0.75766068  0.57733621  0.93906513     0.12500
C2536       C  0.74110139  0.57385228  0.88028498    -0.11900
H2537       H  0.77691685  0.54212081  0.85112587     0.12700
C2538       C  0.83828313  0.51559031  0.92190635    -0.22700
H2539       H  0.80278329  0.54723038  0.94995997     0.08400
C2540       C  0.73942555  0.56465049  0.95794357     0.04700
C2541       C  0.72492155  0.58117424  0.97689467    -0.20000
C2542       C  0.72812124  0.61027055  0.97747832    -0.12200
C2543       C  0.74606708  0.62307598  0.95804141     0.13400
C2544       C  0.76069467  0.60636490  0.93920225    -0.22700
C2545       C  0.73505138  0.53367240  0.95785553    -0.05700
H2546       H  0.71118373  0.57120665  0.99156047     0.15000
C2547       C  0.74924471  0.65426628  0.95621404    -0.15900
H2548       H  0.77457093  0.61595519  0.92440901     0.09300
H2549       H  0.83168646  0.50037640  0.93788262     0.07100
H2550       H  0.85210797  0.53121579  0.93161700     0.08300
H2551       H  0.85044858  0.50432623  0.90608072     0.07400
H2552       H  0.74318353  0.59664589  0.88353154     0.02300
H2553       H  0.72254203  0.56621771  0.89143761     0.02800
H2554       H  0.73799803  0.57014815  0.85787769     0.06300
H2555       H  0.71966237  0.52709303  0.97357236     0.05200
H2556       H  0.75484670  0.52303506  0.96245797    -0.00500
H2557       H  0.72748265  0.52704502  0.93725871     0.00900
H2558       H  0.75895538  0.66243550  0.97528472     0.04600
H2559       H  0.72870287  0.66403113  0.95318908     0.06500
H2560       H  0.76257035  0.66050573  0.93858646     0.07400
C2561       C  0.92066533  0.54937748  0.79629641    -0.22200
C2562       C  0.91203526  0.55481162  0.76924694     0.09800
C2563       C  0.88574851  0.54591793  0.76043939     0.10200
C2564       C  0.86835531  0.53221456  0.77918378    -0.17100
C2565       C  0.87684033  0.52700276  0.80636569    -0.27500
C2566       C  0.90346396  0.53537447  0.81497033     0.18500
C2567       C  0.93104268  0.56980552  0.75054643     0.12500
C2568       C  0.87611455  0.55095580  0.73134103    -0.11900
H2569       H  0.84802945  0.52549921  0.77266191     0.12700
C2570       C  0.91459379  0.52942132  0.84338196    -0.22700
H2571       H  0.94105136  0.55599665  0.80281513     0.08400
C2572       C  0.93278179  0.59910634  0.75071667     0.04700
C2573       C  0.95229396  0.61237201  0.73378876    -0.20000
C2574       C  0.97009671  0.59701676  0.71656629    -0.12200
C2575       C  0.96774688  0.56747995  0.71606425     0.13400
C2576       C  0.94826465  0.55433749  0.73316006    -0.22700
C2577       C  0.91410255  0.61627971  0.76889475    -0.05700
H2578       H  0.95372482  0.63491684  0.73414707     0.15000
C2579       C  0.98622810  0.54942752  0.69853178    -0.15900
H2580       H  0.94666892  0.53178644  0.73331896     0.09300
H2581       H  0.91989859  0.54931785  0.85376127     0.07100
H2582       H  0.93360836  0.51661393  0.84161456     0.08300
H2583       H  0.89979152  0.51792163  0.85660155     0.07400
H2584       H  0.89025328  0.54042184  0.71662298     0.02300
H2585       H  0.87593983  0.57367117  0.72697239     0.02800
H2586       H  0.85495329  0.54273425  0.72792212     0.06300
H2587       H  0.91793017  0.63896422  0.76636444     0.05200
H2588       H  0.91759853  0.61081808  0.79088012    -0.00500
H2589       H  0.89219780  0.61209375  0.76357424     0.00900
H2590       H  0.00814626  0.55353943  0.70373172     0.04600
H2591       H  0.98252031  0.55373825  0.67634375     0.06500
H2592       H  0.98228486  0.52687476  0.70195973     0.07400
loop_ 
_geom_bond_atom_site_label_1 
_geom_bond_atom_site_label_2 
_geom_bond_distance 
_geom_bond_site_symmetry_2 
_ccdc_geom_bond_type 
C1            C2   1.411       .  A
C1            C6   1.414       .  A
C1         C2446   1.485       .  S
C2            C3   1.409       .  A
C2         C2565   1.486       .  S
C3            C4   1.411       .  A
C3         C2469   1.484       .  S
C4            C5   1.414       .  A
C4         C2414   1.488       .  S
C5            C6   1.417       .  A
C5         C2501   1.486       .  S
C6         C2533   1.491       .  S
C7         C2373   1.490       .  S
C7            N8   1.359       .  A
C7           N12   1.361       .  A
N8            C9   1.359       .  A
C9         C2341   1.489       .  S
C9           N10   1.357       .  A
N10          C11   1.357       .  A
C11        C2405   1.495       .  S
C11          N12   1.357       .  A
C13          C14   1.414       .  A
C13          C18   1.413       .  A
C13        C2382   1.483       .  S
C14          C15   1.414       .  A
C14        C2318   1.491       .  S
C15          C16   1.416       .  A
C15        C2245   1.489       .  S
C16          C17   1.414       .  A
C16        C2181   1.487       .  S
C17          C18   1.409       .  A
C17        C2222   1.488       .  S
C18        C2286   1.489       .  S
C19          C20   1.417       .  A
C19          C24   1.417       .  A
C19        C2021   1.483       .  S
C20          C21   1.413       .  A
C20        C2149   1.490       .  S
C21          C22   1.413       .  A
C21        C2094   1.491       .  S
C22          C23   1.415       .  A
C22        C1989   1.486       .  S
C23          C24   1.415       .  A
C23        C2053   1.486       .  S
C24        C2117   1.499       .  S
C25        C1957   1.502       .  S
C25          N26   1.362       .  A
C25          N30   1.361       .  A
N26          C27   1.361       .  A
C27        C1998   1.500       .  S
C27          N28   1.354       .  A
N28          C29   1.356       .  A
C29        C2190   1.484       .  S
C29          N30   1.360       .  A
C31          C32   1.411       .  A
C31          C36   1.411       .  A
C31        C1797   1.487       .  S
C32          C33   1.413       .  A
C32        C1925   1.483       .  S
C33          C34   1.415       .  A
C33        C1829   1.493       .  S
C34          C35   1.417       .  A
C34        C1765   1.491       .  S
C35          C36   1.416       .  A
C35        C1861   1.485       .  S
C36        C1893   1.491       .  S
C37        C1774   1.485       .  S
C37          N38   1.357       .  A
C37          N42   1.361       .  A
N38          C39   1.355       .  A
C39        C2030   1.496       .  S
C39          N40   1.359       .  A
N40          C41   1.360       .  A
C41        C1733   1.503       .  S
C41          N42   1.360       .  A
C43          C44   1.412       .  A
C43          C48   1.416       .  A
C43        C1582   1.480       .  S
C44          C45   1.410       .  A
C44        C1710   1.495       .  S
C45          C46   1.415       .  A
C45        C1646   1.484       .  S
C46          C47   1.413       .  A
C46        C1541   1.480       .  S
C47          C48   1.412       .  A
C47        C1614   1.498       .  S
C48        C1669   1.485       .  S
C49          C50   1.409       .  A
C49          C54   1.411       .  A
C49        C1742   1.488       .  S
C50          C51   1.411       .  A
C50        C1509   1.482       .  S
C51          C52   1.412       .  A
C51        C1445   1.485       .  S
C52          C53   1.412       .  A
C52        C1390   1.485       .  S
C53          C54   1.413       .  A
C53        C1422   1.487       .  S
C54        C1477   1.480       .  S
C55        C1358   1.502       .  S
C55          N56   1.357       .  A
C55          N60   1.358       .  A
N56          C57   1.361       .  A
C57        C1381   1.495       .  S
C57          N58   1.359       .  A
N58          C59   1.359       .  A
C59        C1550   1.489       .  S
C59          N60   1.359       .  A
C61          C62   1.413       .  A
C61          C66   1.414       .  A
C61        C1349   1.487       .  S
C62          C63   1.412       .  A
C62        C1326   1.489       .  S
C63          C64   1.414       .  A
C63        C1230   1.483       .  S
C64          C65   1.414       .  A
C64        C1189   1.492       .  S
C65          C66   1.416       .  A
C65        C1253   1.491       .  S
C66        C1294   1.486       .  S
C67          C68   1.418       .  A
C67          C72   1.417       .  A
C67         C997   1.489       .  S
C68          C69   1.414       .  A
C68        C1070   1.492       .  S
C69          C70   1.412       .  A
C69        C1157   1.490       .  S
C70          C71   1.411       .  A
C70        C1029   1.480       .  S
C71          C72   1.410       .  A
C71        C1125   1.491       .  S
C72        C1093   1.486       .  S
C73         C965   1.502       .  S
C73          N74   1.358       .  A
C73          N78   1.362       .  A
N74          C75   1.359       .  A
C75        C1006   1.494       .  S
C75          N76   1.359       .  A
N76          C77   1.362       .  A
C77        C1198   1.499       .  S
C77          N78   1.361       .  A
C79          C80   1.410       .  A
C79          C84   1.414       .  A
C79        C1966   1.492       .  S
C80          C81   1.414       .  A
C80         C878   1.488       .  S
C81          C82   1.412       .  A
C81         C910   1.481       .  S
C82          C83   1.412       .  A
C82         C974   1.495       .  S
C83          C84   1.417       .  A
C83         C933   1.485       .  S
C84         C837   1.484       .  S
C85          C86   1.412       .  A
C85          C90   1.416       .  A
C85         C677   1.487       .  S
C86          C87   1.414       .  A
C86         C805   1.495       .  S
C87          C88   1.417       .  A
C87         C750   1.484       .  S
C88          C89   1.413       .  A
C88         C645   1.492       .  S
C89          C90   1.414       .  A
C89         C709   1.492       .  S
C90         C782   1.485       .  S
C91          C92   1.413       .  A
C91          C96   1.415       .  A
C91        C2350   1.482       .  S
C92          C93   1.414       .  A
C92         C590   1.493       .  S
C93          C94   1.419       .  A
C93         C517   1.494       .  S
C94          C95   1.418       .  A
C94         C485   1.485       .  S
C95          C96   1.415       .  A
C95         C549   1.494       .  S
C96         C613   1.495       .  S
C97        C1038   1.485       .  S
C97          N98   1.359       .  A
C97         N102   1.356       .  A
N98          C99   1.357       .  A
C99         C654   1.500       .  S
C99         N100   1.363       .  A
N100        C101   1.362       .  A
C101        C494   1.498       .  S
C101        N102   1.357       .  A
C103        C104   1.419       .  A
C103        C108   1.416       .  A
C103        C334   1.486       .  S
C104        C105   1.419       .  A
C104        C462   1.498       .  S
C105        C106   1.419       .  A
C105        C357   1.495       .  S
C106        C107   1.415       .  A
C106        C293   1.489       .  S
C107        C108   1.412       .  A
C107        C389   1.491       .  S
C108        C430   1.494       .  S
C109        C302   1.492       .  S
C109        N110   1.359       .  A
C109        N114   1.357       .  A
N110        C111   1.359       .  A
C111        C686   1.495       .  S
C111        N112   1.357       .  A
N112        C113   1.360       .  A
C113       C1573   1.485       .  S
C113        N114   1.359       .  A
C115        C325   1.502       .  S
C115        N116   1.359       .  A
C115        N120   1.360       .  A
N116        C117   1.361       .  A
C117       C1806   1.504       .  S
C117        N118   1.359       .  A
N118        C119   1.361       .  A
C119       C2437   1.503       .  S
C119        N120   1.358       .  A
O121       Ni129   1.926       .  S
O121        C131   1.284   1_455  A
O122       Ni129   1.926       .  S
O122        C132   1.284       .  A
O123       Ni129   1.916       .  S
O123        C133   1.282       .  A
O124       Ni129   1.919       .  S
O124        C134   1.282   1_455  A
O125       Ni130   1.916       .  S
O125        C134   1.280   1_455  A
O126       Ni130   1.912       .  S
O126        C133   1.279       .  A
O127       Ni130   1.926       .  S
O127        C132   1.282       .  A
O128       Ni130   1.927       .  S
O128        C131   1.282   1_455  A
Ni129      Ni130   2.380       .  S
C131        C421   1.503       .  S
C132       C2126   1.502       .  S
C133       C1486   1.481       .  S
C134       C2574   1.488       .  S
O135       Ni143   1.924   1_565  S
O135        C145   1.283       .  A
O136       Ni143   1.921       .  S
O136        C146   1.283       .  A
O137       Ni143   1.923       .  S
O137        C147   1.282       .  A
O138       Ni143   1.925   1_565  S
O138        C148   1.284       .  A
O139       Ni144   1.918   1_565  S
O139        C148   1.280       .  A
O140       Ni144   1.920       .  S
O140        C147   1.281       .  A
O141       Ni144   1.927       .  S
O141        C146   1.283       .  A
O142       Ni144   1.932   1_565  S
O142        C145   1.284       .  A
Ni143      Ni144   2.382       .  S
C145        C453   1.497       .  S
C146       C2277   1.497       .  S
C147        C581   1.483       .  S
C148       C1902   1.496       .  S
O149       Ni157   1.914       .  S
O149        C159   1.280       .  A
O150       Ni157   1.916       .  S
O150        C160   1.280   1_554  A
O151       Ni157   1.917       .  S
O151        C161   1.280   1_554  A
O152       Ni157   1.918       .  S
O152        C162   1.281       .  A
O153       Ni158   1.913       .  S
O153        C162   1.281       .  A
O154       Ni158   1.913       .  S
O154        C161   1.281   1_554  A
O155       Ni158   1.920       .  S
O155        C160   1.283   1_554  A
O156       Ni158   1.921       .  S
O156        C159   1.283       .  A
Ni157      Ni158   2.382       .  S
C159       C1678   1.492       .  S
C160       C2542   1.487       .  S
C161       C1934   1.489       .  S
C162        C773   1.485       .  S
O163       Ni171   1.917   1_545  S
O163        C173   1.281       .  A
O164       Ni171   1.915       .  S
O164        C174   1.281       .  A
O165       Ni171   1.914       .  S
O165        C175   1.282       .  A
O166       Ni171   1.916   1_545  S
O166        C176   1.281       .  A
O167       Ni172   1.918   1_545  S
O167        C176   1.281       .  A
O168       Ni172   1.922       .  S
O168        C175   1.281       .  A
O169       Ni172   1.920       .  S
O169        C174   1.281       .  A
O170       Ni172   1.921   1_545  S
O170        C173   1.282       .  A
Ni171      Ni172   2.385       .  S
C173        C869   1.487       .  S
C174       C1870   1.483       .  S
C175       C1518   1.488       .  S
C176       C2213   1.483       .  S
O177       Ni185   1.916       .  S
O177        C187   1.280       .  A
O178       Ni185   1.913       .  S
O178        C188   1.282   1_455  A
O179       Ni185   1.916       .  S
O179        C189   1.280   1_455  A
O180       Ni185   1.916       .  S
O180        C190   1.280       .  A
O181       Ni186   1.919       .  S
O181        C190   1.282       .  A
O182       Ni186   1.920       .  S
O182        C189   1.282   1_455  A
O183       Ni186   1.916       .  S
O183        C188   1.280   1_455  A
O184       Ni186   1.916       .  S
O184        C187   1.282       .  A
Ni185      Ni186   2.385       .  S
C187        C846   1.490       .  S
C188       C2478   1.481       .  S
C189        C622   1.477       .  S
C190       C2062   1.486       .  S
O191       Ni199   1.913       .  S
O191        C201   1.282   1_554  A
O192       Ni199   1.915       .  S
O192        C202   1.281       .  A
O193       Ni199   1.919       .  S
O193        C203   1.282       .  A
O194       Ni199   1.918       .  S
O194        C204   1.282   1_554  A
O195       Ni200   1.925       .  S
O195        C204   1.282   1_554  A
O196       Ni200   1.925       .  S
O196        C203   1.282       .  A
O197       Ni200   1.925       .  S
O197        C202   1.282       .  A
O198       Ni200   1.924       .  S
O198        C201   1.282   1_554  A
Ni199      Ni200   2.382       .  S
C201       C1838   1.496       .  S
C202       C1285   1.486       .  S
C203       C1605   1.486       .  S
C204       C2158   1.495       .  S
O205       Ni213   1.928       .  S
O205        C215   1.283       .  A
O206       Ni213   1.922       .  S
O206        C216   1.283   1_554  A
O207       Ni213   1.916       .  S
O207        C217   1.280   1_554  A
O208       Ni213   1.919       .  S
O208        C218   1.283       .  A
O209       Ni214   1.921       .  S
O209        C218   1.281       .  A
O210       Ni214   1.918       .  S
O210        C217   1.282   1_554  A
O211       Ni214   1.919       .  S
O211        C216   1.281   1_554  A
O212       Ni214   1.919       .  S
O212        C215   1.281       .  A
Ni213      Ni214   2.383       .  S
C215        C718   1.489       .  S
C216       C2309   1.487       .  S
C217       C2510   1.480       .  S
C218       C1166   1.497       .  S
O219       Ni227   1.932   1_565  S
O219        C229   1.284       .  A
O220       Ni227   1.928       .  S
O220        C230   1.283       .  A
O221       Ni227   1.929       .  S
O221        C231   1.283       .  A
O222       Ni227   1.927   1_565  S
O222        C232   1.284       .  A
O223       Ni228   1.919   1_565  S
O223        C232   1.281       .  A
O224       Ni228   1.921       .  S
O224        C231   1.283       .  A
O225       Ni228   1.915       .  S
O225        C230   1.281       .  A
O226       Ni228   1.919   1_565  S
O226        C229   1.281       .  A
Ni227      Ni228   2.380       .  S
C229        C366   1.498       .  S
C230       C1134   1.484       .  S
C231        C526   1.502       .  S
C232       C1701   1.499       .  S
O233       Ni241   1.925       .  S
O233        C243   1.281   1_455  A
O234       Ni241   1.923       .  S
O234        C244   1.284       .  A
O235       Ni241   1.927       .  S
O235        C245   1.283       .  A
O236       Ni241   1.927       .  S
O236        C246   1.283   1_455  A
O237       Ni242   1.918       .  S
O237        C246   1.281   1_455  A
O238       Ni242   1.916       .  S
O238        C245   1.280       .  A
O239       Ni242   1.919       .  S
O239        C244   1.280       .  A
O240       Ni242   1.919       .  S
O240        C243   1.283   1_455  A
Ni241      Ni242   2.382       .  S
C243        C398   1.492       .  S
C244       C1317   1.497       .  S
C245       C1413   1.483       .  S
C246        C814   1.493       .  S
O247       Ni255   1.919       .  S
O247        C257   1.281   1_455  A
O248       Ni255   1.923       .  S
O248        C258   1.282       .  A
O249       Ni255   1.920       .  S
O249        C259   1.281       .  A
O250       Ni255   1.919       .  S
O250        C260   1.282       .  A
O251       Ni256   1.911       .  S
O251        C260   1.279       .  A
O252       Ni256   1.911       .  S
O252        C259   1.281       .  A
O253       Ni256   1.909       .  S
O253        C258   1.280       .  A
O254       Ni256   1.918       .  S
O254        C257   1.282   1_455  A
Ni255      Ni256   2.385       .  S
C257        C558   1.493       .  S
C258       C1221   1.477       .  S
C259        C942   1.487       .  S
C260        C741   1.479   1_455  S
O261       Ni269   1.922       .  S
O261        C271   1.283       .  A
O262       Ni269   1.923   1_545  S
O262        C272   1.284       .  A
O263       Ni269   1.911   1_545  S
O263        C273   1.279       .  A
O264       Ni269   1.910       .  S
O264        C274   1.279       .  A
O265       Ni270   1.914       .  S
O265        C274   1.280       .  A
O266       Ni270   1.916   1_545  S
O266        C273   1.281       .  A
O267       Ni270   1.918   1_545  S
O267        C272   1.280       .  A
O268       Ni270   1.916       .  S
O268        C271   1.280       .  A
Ni269      Ni270   2.386       .  S
C271       C1454   1.490       .  S
C272       C1102   1.494       .  S
C273        C901   1.471       .  S
C274       C1637   1.473       .  S
O275       Ni283   1.923       .  S
O275        C285   1.284   1_554  A
O276       Ni283   1.928       .  S
O276        C286   1.285       .  A
O277       Ni283   1.916       .  S
O277        C287   1.281       .  A
O278       Ni283   1.915       .  S
O278        C288   1.280   1_554  A
O279       Ni284   1.923       .  S
O279        C288   1.282   1_554  A
O280       Ni284   1.924       .  S
O280        C287   1.282       .  A
O281       Ni284   1.914       .  S
O281        C286   1.280       .  A
O282       Ni284   1.915       .  S
O282        C285   1.280   1_554  A
Ni283      Ni284   2.384       .  S
C285       C2254   1.491       .  S
C286       C1262   1.497       .  S
C287       C1061   1.482       .  S
C288       C2085   1.480       .  S
C289        C290   1.398       .  A
C289        C294   1.400       .  A
C289        H299   1.085       .  S
C290        C291   1.410       .  A
C290        C295   1.479       .  S
C291        C292   1.405       .  A
C291        C296   1.505       .  S
C292        C293   1.405       .  A
C292        H297   1.083       .  S
C293        C294   1.418       .  A
C294        C298   1.508       .  S
C295        C300   1.407       .  A
C295        C304   1.399       .  A
C296        H312   1.110       .  S
C296        H313   1.110       .  S
C296        H314   1.111       .  S
C298        H309   1.110       .  S
C298        H310   1.110       .  S
C298        H311   1.107       .  S
C300        C301   1.402       .  A
C300        C305   1.506       .  S
C301        C302   1.409       .  A
C301        H306   1.084       .  S
C302        C303   1.423       .  A
C303        C304   1.406       .  A
C303        C307   1.507       .  S
C304        H308   1.085       .  S
C305        H315   1.111       .  S
C305        H316   1.110       .  S
C305        H317   1.110       .  S
C307        H318   1.111       .  S
C307        H319   1.110       .  S
C307        H320   1.107       .  S
C321        C322   1.399       .  A
C321        C326   1.406       .  A
C321        H331   1.084       .  S
C322        C323   1.407       .  A
C322        C327   1.485       .  S
C323        C324   1.403       .  A
C323        C328   1.505       .  S
C324        C325   1.411       .  A
C324        H329   1.081       .  S
C325        C326   1.426       .  A
C326        C330   1.507       .  S
C327        C332   1.412       .  A
C327        C336   1.404       .  A
C328        H344   1.110       .  S
C328        H345   1.111       .  S
C328        H346   1.111       .  S
C330        H341   1.110       .  S
C330        H342   1.111       .  S
C330        H343   1.109       .  S
C332        C333   1.398       .  A
C332        C337   1.508       .  S
C333        C334   1.400       .  A
C333        H338   1.083       .  S
C334        C335   1.414       .  A
C335        C336   1.407       .  A
C335        C339   1.505       .  S
C336        H340   1.084       .  S
C337        H347   1.111       .  S
C337        H348   1.109       .  S
C337        H349   1.110       .  S
C339        H350   1.110       .  S
C339        H351   1.108       .  S
C339        H352   1.111       .  S
C353        C354   1.402       .  A
C353        C358   1.407       .  A
C353        H363   1.084       .  S
C354        C355   1.411       .  A
C354        C359   1.488       .  S
C355        C356   1.404       .  A
C355        C360   1.506       .  S
C356        C357   1.403       .  A
C356        H361   1.084       .  S
C357        C358   1.417       .  A
C358        C362   1.504       .  S
C359        C364   1.410       .  A
C359        C368   1.399       .  A
C360        H376   1.110       .  S
C360        H377   1.110       .  S
C360        H378   1.111       .  S
C362        H373   1.110       .  S
C362        H374   1.110       .  S
C362        H375   1.106       .  S
C364        C365   1.409       .  A
C364        C369   1.507       .  S
C365        C366   1.410       .  A
C365        H370   1.084       .  S
C366        C367   1.423       .  A
C367        C368   1.407       .  A
C367        C371   1.508       .  S
C368        H372   1.085       .  S
C369        H379   1.111       .  S
C369        H380   1.111       .  S
C369        H381   1.110       .  S
C371        H382   1.109       .  S
C371        H383   1.111       .  S
C371        H384   1.111       .  S
C385        C386   1.401       .  A
C385        C390   1.402       .  A
C385        H395   1.084       .  S
C386        C387   1.412       .  A
C386        C391   1.485       .  S
C387        C388   1.405       .  A
C387        C392   1.506       .  S
C388        C389   1.404       .  A
C388        H393   1.082       .  S
C389        C390   1.415       .  A
C390        C394   1.508       .  S
C391        C396   1.408       .  A
C391        C400   1.400       .  A
C392        H408   1.110       .  S
C392        H409   1.110       .  S
C392        H410   1.111       .  S
C394        H405   1.110       .  S
C394        H406   1.110       .  S
C394        H407   1.108       .  S
C396        C397   1.403       .  A
C396        C401   1.506       .  S
C397        C398   1.408       .  A
C397        H402   1.084       .  S
C398        C399   1.426       .  A
C399        C400   1.407       .  A
C399        C403   1.508       .  S
C400        H404   1.085       .  S
C401        H411   1.111       .  S
C401        H412   1.110       .  S
C401        H413   1.110       .  S
C403        H414   1.111       .  S
C403        H415   1.098   1_655  S
C403        H416   1.111       .  S
C417        C418   1.400       .  A
C417        C422   1.410       .  A
C417        H427   1.084       .  S
C418        C419   1.408       .  A
C418        C423   1.488       .  S
C419        C420   1.405       .  A
C419        C424   1.505       .  S
C420        C421   1.410       .  A
C420        H425   1.084       .  S
C421        C422   1.426       .  A
C422        C426   1.507       .  S
C423        C428   1.411       .  A
C423        C432   1.403       .  A
C424        H440   1.108       .  S
C424        H441   1.109       .  S
C424        H442   1.111       .  S
C426        H437   1.111       .  S
C426        H438   1.110       .  S
C426        H439   1.109   1_655  S
C428        C429   1.404       .  A
C428        C433   1.506       .  S
C429        C430   1.404       .  A
C429        H434   1.083       .  S
C430        C431   1.415       .  A
C431        C432   1.406       .  A
C431        C435   1.506       .  S
C432        H436   1.084       .  S
C433        H443   1.111       .  S
C433        H444   1.110       .  S
C433        H445   1.109       .  S
C435        H446   1.110       .  S
C435        H447   1.108       .  S
C435        H448   1.110       .  S
C449        C450   1.403       .  A
C449        C454   1.410       .  A
C449        H459   1.084       .  S
C450        C451   1.411       .  A
C450        C455   1.492       .  S
C451        C452   1.409       .  A
C451        C456   1.507       .  S
C452        C453   1.409       .  A
C452        H457   1.084       .  S
C453        C454   1.420       .  A
C454        C458   1.507       .  S
C455        C460   1.412       .  A
C455        C464   1.403       .  A
C456        H472   1.110       .  S
C456        H473   1.110       .  S
C456        H474   1.111       .  S
C458        H469   1.111       .  S
C458        H470   1.110       .  S
C458        H471   1.109       .  S
C460        C461   1.408       .  A
C460        C465   1.505       .  S
C461        C462   1.405       .  A
C461        H466   1.084       .  S
C462        C463   1.416       .  A
C463        C464   1.407       .  A
C463        C467   1.504       .  S
C464        H468   1.084       .  S
C465        H475   1.111       .  S
C465        H476   1.110       .  S
C465        H477   1.110       .  S
C467        H478   1.111       .  S
C467        H479   1.106       .  S
C467        H480   1.110       .  S
C481        C482   1.403       .  A
C481        C486   1.405       .  A
C481        H491   1.084       .  S
C482        C483   1.409       .  A
C482        C487   1.478       .  S
C483        C484   1.397       .  A
C483        C488   1.507       .  S
C484        C485   1.402       .  A
C484        H489   1.084       .  S
C485        C486   1.413       .  A
C486        C490   1.505       .  S
C487        C492   1.406       .  A
C487        C496   1.396       .  A
C488        H504   1.110       .  S
C488        H505   1.110       .  S
C488        H506   1.111       .  S
C490        H501   1.110       .  S
C490        H502   1.110       .  S
C490        H503   1.108       .  S
C492        C493   1.405       .  A
C492        C497   1.507       .  S
C493        C494   1.412       .  A
C493        H498   1.083       .  S
C494        C495   1.427       .  A
C495        C496   1.403       .  A
C495        C499   1.508       .  S
C496        H500   1.085       .  S
C497        H507   1.111       .  S
C497        H508   1.110       .  S
C497        H509   1.110       .  S
C499        H510   1.107       .  S
C499        H511   1.110       .  S
C499        H512   1.111       .  S
C513        C514   1.402       .  A
C513        C518   1.406       .  A
C513        H523   1.085       .  S
C514        C515   1.410       .  A
C514        C519   1.486       .  S
C515        C516   1.403       .  A
C515        C520   1.505       .  S
C516        C517   1.404       .  A
C516        H521   1.084       .  S
C517        C518   1.418       .  A
C518        C522   1.505       .  S
C519        C524   1.408       .  A
C519        C528   1.400       .  A
C520        H536   1.110       .  S
C520        H537   1.110       .  S
C520        H538   1.111       .  S
C522        H533   1.110       .  S
C522        H534   1.110       .  S
C522        H535   1.107       .  S
C524        C525   1.406       .  A
C524        C529   1.507       .  S
C525        C526   1.412       .  A
C525        H530   1.084       .  S
C526        C527   1.424       .  A
C527        C528   1.408       .  A
C527        C531   1.507       .  S
C528        H532   1.084       .  S
C529        H539   1.111       .  S
C529        H540   1.110       .  S
C529        H541   1.110       .  S
C531        H542   1.111       .  S
C531        H543   1.110       .  S
C531        H544   1.110       .  S
C545        C546   1.401       .  A
C545        C550   1.404       .  A
C545        H555   1.084       .  S
C546        C547   1.409       .  A
C546        C551   1.482       .  S
C547        C548   1.402       .  A
C547        C552   1.506       .  S
C548        C549   1.404       .  A
C548        H553   1.081       .  S
C549        C550   1.417       .  A
C550        C554   1.507       .  S
C551        C556   1.408       .  A
C551        C560   1.399       .  A
C552        H568   1.110       .  S
C552        H569   1.110       .  S
C552        H570   1.111       .  S
C554        H565   1.111       .  S
C554        H566   1.110       .  S
C554        H567   1.107       .  S
C556        C557   1.403       .  A
C556        C561   1.505       .  S
C557        C558   1.409       .  A
C557        H562   1.084       .  S
C558        C559   1.423       .  A
C559        C560   1.406       .  A
C559        C563   1.508       .  S
C560        H564   1.084       .  S
C561        H571   1.111       .  S
C561        H572   1.109       .  S
C561        H573   1.110       .  S
C563        H574   1.110       .  S
C563        H575   1.111       .  S
C563        H576   1.111       .  S
C577        C578   1.401       .  A
C577        C582   1.405       .  A
C577        H587   1.085       .  S
C578        C579   1.411       .  A
C578        C583   1.484       .  S
C579        C580   1.406       .  A
C579        C584   1.508       .  S
C580        C581   1.406       .  A
C580        H585   1.084       .  S
C581        C582   1.419       .  A
C582        C586   1.509       .  S
C583        C588   1.410       .  A
C583        C592   1.401       .  A
C584        H600   1.110       .  S
C584        H601   1.111       .  S
C584        H602   1.111       .  S
C586        H597   1.111       .  S
C586        H598   1.110       .  S
C586        H599   1.106       .  S
C588        C589   1.404       .  A
C588        C593   1.506       .  S
C589        C590   1.404       .  A
C589        H594   1.084       .  S
C590        C591   1.415       .  A
C591        C592   1.404       .  A
C591        C595   1.502       .  S
C592        H596   1.084       .  S
C593        H603   1.111       .  S
C593        H604   1.110       .  S
C593        H605   1.110       .  S
C595        H606   1.110       .  S
C595        H607   1.105       .  S
C595        H608   1.110       .  S
C609        C610   1.400       .  A
C609        C614   1.403       .  A
C609        H619   1.085       .  S
C610        C611   1.409       .  A
C610        C615   1.481       .  S
C611        C612   1.403       .  A
C611        C616   1.506       .  S
C612        C613   1.406       .  A
C612        H617   1.083       .  S
C613        C614   1.417       .  A
C614        C618   1.505       .  S
C615        C620   1.412       .  A
C615        C624   1.402       .  A
C616        H632   1.110       .  S
C616        H633   1.110       .  S
C616        H634   1.111       .  S
C618        H629   1.110       .  S
C618        H630   1.110       .  S
C618        H631   1.106       .  S
C620        C621   1.402       .  A
C620        C625   1.506       .  S
C621        C622   1.403       .  A
C621        H626   1.085       .  S
C622        C623   1.417       .  A
C623        C624   1.404       .  A
C623        C627   1.509       .  S
C624        H628   1.085       .  S
C625        H635   1.110       .  S
C625        H636   1.110       .  S
C625        H637   1.108       .  S
C627        H638   1.111       .  S
C627        H639   1.107       .  S
C627        H640   1.110       .  S
C641        C642   1.400       .  A
C641        C646   1.399       .  A
C641        H651   1.085       .  S
C642        C643   1.410       .  A
C642        C647   1.483       .  S
C643        C644   1.407       .  A
C643        C648   1.504       .  S
C644        C645   1.406       .  A
C644        H649   1.083       .  S
C645        C646   1.416       .  A
C646        C650   1.508       .  S
C647        C652   1.407       .  A
C647        C656   1.396       .  A
C648        H664   1.110       .  S
C648        H665   1.110       .  S
C648        H666   1.111       .  S
C650        H661   1.110       .  S
C650        H662   1.110       .  S
C650        H663   1.107       .  S
C652        C653   1.404       .  A
C652        C657   1.501       .  S
C653        C654   1.409       .  A
C653        H658   1.083       .  S
C654        C655   1.427       .  A
C655        C656   1.405       .  A
C655        C659   1.506       .  S
C656        H660   1.084       .  S
C657        H667   1.111       .  S
C657        H668   1.108       .  S
C657        H669   1.110       .  S
C659        H670   1.111       .  S
C659        H671   1.108       .  S
C659        H672   1.110       .  S
C673        C674   1.402       .  A
C673        C678   1.404       .  A
C673        H683   1.084       .  S
C674        C675   1.413       .  A
C674        C679   1.478       .  S
C675        C676   1.398       .  A
C675        C680   1.508       .  S
C676        C677   1.401       .  A
C676        H681   1.084       .  S
C677        C678   1.414       .  A
C678        C682   1.505       .  S
C679        C684   1.407       .  A
C679        C688   1.398       .  A
C680        H696   1.110       .  S
C680        H697   1.111       .  S
C680        H698   1.108       .  S
C682        H693   1.110       .  S
C682        H694   1.110       .  S
C682        H695   1.107       .  S
C684        C685   1.402       .  A
C684        C689   1.507       .  S
C685        C686   1.410       .  A
C685        H690   1.084       .  S
C686        C687   1.425       .  A
C687        C688   1.405       .  A
C687        C691   1.507       .  S
C688        H692   1.085       .  S
C689        H699   1.111       .  S
C689        H700   1.110       .  S
C689        H701   1.110       .  S
C691        H702   1.111       .  S
C691        H703   1.110       .  S
C691        H704   1.110       .  S
C705        C706   1.403       .  A
C705        C710   1.405       .  A
C705        H715   1.084       .  S
C706        C707   1.412       .  A
C706        C711   1.487       .  S
C707        C708   1.403       .  A
C707        C712   1.506       .  S
C708        C709   1.403       .  A
C708        H713   1.084       .  S
C709        C710   1.415       .  A
C710        C714   1.504       .  S
C711        C716   1.412       .  A
C711        C720   1.401       .  A
C712        H728   1.109       .  S
C712        H729   1.110       .  S
C712        H730   1.111       .  S
C714        H725   1.110       .  S
C714        H726   1.110       .  S
C714        H727   1.106       .  S
C716        C717   1.408       .  A
C716        C721   1.507       .  S
C717        C718   1.407       .  A
C717        H722   1.084       .  S
C718        C719   1.419       .  A
C719        C720   1.405       .  A
C719        C723   1.508       .  S
C720        H724   1.084       .  S
C721        H731   1.111       .  S
C721        H732   1.110       .  S
C721        H733   1.110       .  S
C723        H734   1.109       .  S
C723        H735   1.110       .  S
C723        H736   1.111       .  S
C737        C738   1.398       .  A
C737        C742   1.403       .  A
C737        H747   1.084       .  S
C738        C739   1.408       .  A
C738        C743   1.476       .  S
C739        C740   1.400       .  A
C739        C744   1.503       .  S
C740        C741   1.403       .  A
C740        H745   1.084       .  S
C741        C742   1.419       .  A
C742        C746   1.506   1_655  S
C743        C748   1.409       .  A
C743        C752   1.400       .  A
C744        H760   1.110       .  S
C744        H761   1.110       .  S
C744        H762   1.111       .  S
C746        H757   1.109       .  S
C746        H758   1.111       .  S
C746        H759   1.108       .  S
C748        C749   1.400       .  A
C748        C753   1.506       .  S
C749        C750   1.403       .  A
C749        H754   1.083       .  S
C750        C751   1.415       .  A
C751        C752   1.400       .  A
C751        C755   1.507       .  S
C752        H756   1.084       .  S
C753        H763   1.111       .  S
C753        H764   1.110       .  S
C753        H765   1.110       .  S
C755        H766   1.110       .  S
C755        H767   1.107       .  S
C755        H768   1.110       .  S
C769        C770   1.399       .  A
C769        C774   1.404       .  A
C769        H779   1.085       .  S
C770        C771   1.408       .  A
C770        C775   1.476       .  S
C771        C772   1.402       .  A
C771        C776   1.508       .  S
C772        C773   1.408       .  A
C772        H777   1.084       .  S
C773        C774   1.419       .  A
C774        C778   1.507       .  S
C775        C780   1.410       .  A
C775        C784   1.401       .  A
C776        H792   1.110       .  S
C776        H793   1.109       .  S
C776        H794   1.111       .  S
C778        H789   1.111       .  S
C778        H790   1.110       .  S
C778        H791   1.109       .  S
C780        C781   1.399       .  A
C780        C785   1.507       .  S
C781        C782   1.401       .  A
C781        H786   1.084       .  S
C782        C783   1.415       .  A
C783        C784   1.403       .  A
C783        C787   1.505       .  S
C784        H788   1.085       .  S
C785        H795   1.111       .  S
C785        H796   1.110       .  S
C785        H797   1.109       .  S
C787        H798   1.110       .  S
C787        H799   1.110       .  S
C787        H800   1.107       .  S
C801        C802   1.402       .  A
C801        C806   1.405       .  A
C801        H811   1.084       .  S
C802        C803   1.410       .  A
C802        C807   1.485       .  S
C803        C804   1.404       .  A
C803        C808   1.505       .  S
C804        C805   1.404       .  A
C804        H809   1.083       .  S
C805        C806   1.416       .  A
C806        C810   1.505       .  S
C807        C812   1.410       .  A
C807        C816   1.400       .  A
C808        H824   1.110       .  S
C808        H825   1.110       .  S
C808        H826   1.111       .  S
C810        H821   1.110       .  S
C810        H822   1.110       .  S
C810        H823   1.107       .  S
C812        C813   1.407       .  A
C812        C817   1.508       .  S
C813        C814   1.408       .  A
C813        H818   1.084       .  S
C814        C815   1.422       .  A
C815        C816   1.407       .  A
C815        C819   1.508       .  S
C816        H820   1.084       .  S
C817        H827   1.111       .  S
C817        H828   1.110       .  S
C817        H829   1.111       .  S
C819        H830   1.111       .  S
C819        H831   1.109       .  S
C819        H832   1.111       .  S
C833        C834   1.400       .  A
C833        C838   1.400       .  A
C833        H843   1.084       .  S
C834        C835   1.409       .  A
C834        C839   1.476       .  S
C835        C836   1.402       .  A
C835        C840   1.506       .  S
C836        C837   1.404       .  A
C836        H841   1.084       .  S
C837        C838   1.416       .  A
C838        C842   1.508       .  S
C839        C844   1.406       .  A
C839        C848   1.399       .  A
C840        H856   1.110       .  S
C840        H857   1.110       .  S
C840        H858   1.111       .  S
C842        H853   1.110       .  S
C842        H854   1.110       .  S
C842        H855   1.108       .  S
C844        C845   1.401       .  A
C844        C849   1.507       .  S
C845        C846   1.409       .  A
C845        H850   1.083       .  S
C846        C847   1.423       .  A
C847        C848   1.405       .  A
C847        C851   1.508       .  S
C848        H852   1.084       .  S
C849        H859   1.111       .  S
C849        H860   1.110       .  S
C849        H861   1.110       .  S
C851        H862   1.110       .  S
C851        H863   1.109       .  S
C851        H864   1.111       .  S
C865        C866   1.400       .  A
C865        C870   1.405       .  A
C865        H875   1.084       .  S
C866        C867   1.410       .  A
C866        C871   1.480       .  S
C867        C868   1.404       .  A
C867        C872   1.508       .  S
C868        C869   1.407       .  A
C868        H873   1.084       .  S
C869        C870   1.420       .  A
C870        C874   1.508       .  S
C871        C876   1.410       .  A
C871        C880   1.401       .  A
C872        H888   1.110       .  S
C872        H889   1.110       .  S
C872        H890   1.111       .  S
C874        H885   1.111       .  S
C874        H886   1.111       .  S
C874        H887   1.109       .  S
C876        C877   1.403       .  A
C876        C881   1.506       .  S
C877        C878   1.403       .  A
C877        H882   1.083       .  S
C878        C879   1.414       .  A
C879        C880   1.402       .  A
C879        C883   1.506       .  S
C880        H884   1.084       .  S
C881        H891   1.111       .  S
C881        H892   1.110       .  S
C881        H893   1.109       .  S
C883        H894   1.110       .  S
C883        H895   1.107       .  S
C883        H896   1.110       .  S
C897        C898   1.399       .  A
C897        C902   1.400       .  A
C897        H907   1.085       .  S
C898        C899   1.409       .  A
C898        C903   1.472       .  S
C899        C900   1.402       .  A
C899        C904   1.507       .  S
C900        C901   1.404       .  A
C900        H905   1.084       .  S
C901        C902   1.416       .  A
C902        C906   1.507       .  S
C903        C908   1.408       .  A
C903        C912   1.399       .  A
C904        H920   1.110       .  S
C904        H921   1.110       .  S
C904        H922   1.111       .  S
C906        H917   1.111       .  S
C906        H918   1.110       .  S
C906        H919   1.104       .  S
C908        C909   1.399       .  A
C908        C913   1.506       .  S
C909        C910   1.402       .  A
C909        H914   1.083       .  S
C910        C911   1.414       .  A
C911        C912   1.399       .  A
C911        C915   1.507       .  S
C912        H916   1.085       .  S
C913        H923   1.111       .  S
C913        H924   1.110       .  S
C913        H925   1.110       .  S
C915        H926   1.110       .  S
C915        H927   1.108       .  S
C915        H928   1.110       .  S
C929        C930   1.402       .  A
C929        C934   1.403       .  A
C929        H939   1.085       .  S
C930        C931   1.410       .  A
C930        C935   1.480       .  S
C931        C932   1.400       .  A
C931        C936   1.506       .  S
C932        C933   1.402       .  A
C932        H937   1.083       .  S
C933        C934   1.414       .  A
C934        C938   1.506       .  S
C935        C940   1.407       .  A
C935        C944   1.399       .  A
C936        H952   1.110       .  S
C936        H953   1.110       .  S
C936        H954   1.111       .  S
C938        H949   1.110       .  S
C938        H950   1.110       .  S
C938        H951   1.108       .  S
C940        C941   1.400       .  A
C940        C945   1.507       .  S
C941        C942   1.409       .  A
C941        H946   1.084       .  S
C942        C943   1.424       .  A
C943        C944   1.404       .  A
C943        C947   1.509       .  S
C944        H948   1.084       .  S
C945        H955   1.111       .  S
C945        H956   1.110       .  S
C945        H957   1.110       .  S
C947        H958   1.111       .  S
C947        H959   1.099       .  S
C947        H960   1.110       .  S
C961        C962   1.399       .  A
C961        C966   1.408       .  A
C961        H971   1.084       .  S
C962        C963   1.408       .  A
C962        C967   1.485       .  S
C963        C964   1.404       .  A
C963        C968   1.507       .  S
C964        C965   1.411       .  A
C964        H969   1.082       .  S
C965        C966   1.427       .  A
C966        C970   1.508       .  S
C967        C972   1.410       .  A
C967        C976   1.400       .  A
C968        H984   1.110       .  S
C968        H985   1.109       .  S
C968        H986   1.111       .  S
C970        H981   1.111       .  S
C970        H982   1.108       .  S
C970        H983   1.110       .  S
C972        C973   1.407       .  A
C972        C977   1.505       .  S
C973        C974   1.406       .  A
C973        H978   1.083       .  S
C974        C975   1.416       .  A
C975        C976   1.401       .  A
C975        C979   1.508       .  S
C976        H980   1.085       .  S
C977        H987   1.111       .  S
C977        H988   1.110       .  S
C977        H989   1.110       .  S
C979        H990   1.110       .  S
C979        H991   1.107       .  S
C979        H992   1.110       .  S
C993        C994   1.398       .  A
C993        C998   1.397       .  A
C993       H1003   1.085       .  S
C994        C995   1.411       .  A
C994        C999   1.481       .  S
C995        C996   1.407       .  A
C995       C1000   1.504       .  S
C996        C997   1.406       .  A
C996       H1001   1.084       .  S
C997        C998   1.417       .  A
C998       C1002   1.509       .  S
C999       C1004   1.408       .  A
C999       C1008   1.400       .  A
C1000      H1016   1.110       .  S
C1000      H1017   1.110       .  S
C1000      H1018   1.111       .  S
C1002      H1013   1.110       .  S
C1002      H1014   1.110       .  S
C1002      H1015   1.107       .  S
C1004      C1005   1.402       .  A
C1004      C1009   1.509       .  S
C1005      C1006   1.409       .  A
C1005      H1010   1.083       .  S
C1006      C1007   1.422       .  A
C1007      C1008   1.408       .  A
C1007      C1011   1.507       .  S
C1008      H1012   1.084       .  S
C1009      H1019   1.111       .  S
C1009      H1020   1.110       .  S
C1009      H1021   1.110       .  S
C1011      H1022   1.111       .  S
C1011      H1023   1.109       .  S
C1011      H1024   1.110       .  S
C1025      C1026   1.400       .  A
C1025      C1030   1.397       .  A
C1025      H1035   1.085       .  S
C1026      C1027   1.411       .  A
C1026      C1031   1.477       .  S
C1027      C1028   1.402       .  A
C1027      C1032   1.505       .  S
C1028      C1029   1.401       .  A
C1028      H1033   1.083       .  S
C1029      C1030   1.414       .  A
C1030      C1034   1.509       .  S
C1031      C1036   1.408       .  A
C1031      C1040   1.401       .  A
C1032      H1048   1.110       .  S
C1032      H1049   1.110       .  S
C1032      H1050   1.111       .  S
C1034      H1045   1.110       .  S
C1034      H1046   1.110       .  S
C1034      H1047   1.108       .  S
C1036      C1037   1.397       .  A
C1036      C1041   1.508       .  S
C1037      C1038   1.406       .  A
C1037      H1042   1.079       .  S
C1038      C1039   1.420       .  A
C1039      C1040   1.404       .  A
C1039      C1043   1.507       .  S
C1040      H1044   1.085       .  S
C1041      H1051   1.111       .  S
C1041      H1052   1.109       .  S
C1041      H1053   1.108       .  S
C1043      H1054   1.110       .  S
C1043      H1055   1.106       .  S
C1043      H1056   1.111       .  S
C1057      C1058   1.402       .  A
C1057      C1062   1.407       .  A
C1057      H1067   1.084       .  S
C1058      C1059   1.410       .  A
C1058      C1063   1.482       .  S
C1059      C1060   1.404       .  A
C1059      C1064   1.508       .  S
C1060      C1061   1.405       .  A
C1060      H1065   1.084       .  S
C1061      C1062   1.416       .  A
C1062      C1066   1.506       .  S
C1063      C1068   1.410       .  A
C1063      C1072   1.400       .  A
C1064      H1080   1.110       .  S
C1064      H1081   1.110       .  S
C1064      H1082   1.111       .  S
C1066      H1077   1.111       .  S
C1066      H1078   1.109       .  S
C1066      H1079   1.110       .  S
C1068      C1069   1.404       .  A
C1068      C1073   1.506       .  S
C1069      C1070   1.404       .  A
C1069      H1074   1.083       .  S
C1070      C1071   1.417       .  A
C1071      C1072   1.403       .  A
C1071      C1075   1.507       .  S
C1072      H1076   1.084       .  S
C1073      H1083   1.111       .  S
C1073      H1084   1.110       .  S
C1073      H1085   1.110       .  S
C1075      H1086   1.110       .  S
C1075      H1087   1.107       .  S
C1075      H1088   1.110       .  S
C1089      C1090   1.401       .  A
C1089      C1094   1.402       .  A
C1089      H1099   1.085       .  S
C1090      C1091   1.411       .  A
C1090      C1095   1.481       .  S
C1091      C1092   1.403       .  A
C1091      C1096   1.506       .  S
C1092      C1093   1.403       .  A
C1092      H1097   1.084       .  S
C1093      C1094   1.414       .  A
C1094      C1098   1.505       .  S
C1095      C1100   1.408       .  A
C1095      C1104   1.398       .  A
C1096      H1112   1.110       .  S
C1096      H1113   1.110       .  S
C1096      H1114   1.111       .  S
C1098      H1109   1.110       .  S
C1098      H1110   1.110       .  S
C1098      H1111   1.107       .  S
C1100      C1101   1.404       .  A
C1100      C1105   1.505       .  S
C1101      C1102   1.410       .  A
C1101      H1106   1.083       .  S
C1102      C1103   1.424       .  A
C1103      C1104   1.405       .  A
C1103      C1107   1.507       .  S
C1104      H1108   1.085       .  S
C1105      H1115   1.111       .  S
C1105      H1116   1.110       .  S
C1105      H1117   1.109       .  S
C1107      H1118   1.111       .  S
C1107      H1119   1.107       .  S
C1107      H1120   1.109       .  S
C1121      C1122   1.401       .  A
C1121      C1126   1.403       .  A
C1121      H1131   1.084       .  S
C1122      C1123   1.412       .  A
C1122      C1127   1.485       .  S
C1123      C1124   1.406       .  A
C1123      C1128   1.506       .  S
C1124      C1125   1.403       .  A
C1124      H1129   1.082       .  S
C1125      C1126   1.415       .  A
C1126      C1130   1.507       .  S
C1127      C1132   1.409       .  A
C1127      C1136   1.403       .  A
C1128      H1144   1.110       .  S
C1128      H1145   1.110       .  S
C1128      H1146   1.111       .  S
C1130      H1141   1.110       .  S
C1130      H1142   1.110       .  S
C1130      H1143   1.108       .  S
C1132      C1133   1.402       .  A
C1132      C1137   1.505       .  S
C1133      C1134   1.405       .  A
C1133      H1138   1.085       .  S
C1134      C1135   1.420       .  A
C1135      C1136   1.409       .  A
C1135      C1139   1.507       .  S
C1136      H1140   1.085       .  S
C1137      H1147   1.111       .  S
C1137      H1148   1.110       .  S
C1137      H1149   1.109       .  S
C1139      H1150   1.110       .  S
C1139      H1151   1.105       .  S
C1139      H1152   1.111       .  S
C1153      C1154   1.401       .  A
C1153      C1158   1.402       .  A
C1153      H1163   1.084       .  S
C1154      C1155   1.413       .  A
C1154      C1159   1.487       .  S
C1155      C1156   1.406       .  A
C1155      C1160   1.506       .  S
C1156      C1157   1.404       .  A
C1156      H1161   1.084       .  S
C1157      C1158   1.415       .  A
C1158      C1162   1.506       .  S
C1159      C1164   1.410       .  A
C1159      C1168   1.400       .  A
C1160      H1176   1.110       .  S
C1160      H1177   1.111       .  S
C1160      H1178   1.111       .  S
C1162      H1173   1.107       .  S
C1162      H1174   1.110       .  S
C1162      H1175   1.110       .  S
C1164      C1165   1.405       .  A
C1164      C1169   1.507       .  S
C1165      C1166   1.410       .  A
C1165      H1170   1.083       .  S
C1166      C1167   1.424       .  A
C1167      C1168   1.407       .  A
C1167      C1171   1.508       .  S
C1168      H1172   1.084       .  S
C1169      H1179   1.111       .  S
C1169      H1180   1.109       .  S
C1169      H1181   1.108       .  S
C1171      H1182   1.111       .  S
C1171      H1183   1.108       .  S
C1171      H1184   1.110       .  S
C1185      C1186   1.400       .  A
C1185      C1190   1.401       .  A
C1185      H1195   1.085       .  S
C1186      C1187   1.411       .  A
C1186      C1191   1.484       .  S
C1187      C1188   1.406       .  A
C1187      C1192   1.504       .  S
C1188      C1189   1.404       .  A
C1188      H1193   1.084       .  S
C1189      C1190   1.418       .  A
C1190      C1194   1.508       .  S
C1191      C1196   1.409       .  A
C1191      C1200   1.399       .  A
C1192      H1208   1.110       .  S
C1192      H1209   1.110       .  S
C1192      H1210   1.111       .  S
C1194      H1205   1.110       .  S
C1194      H1206   1.110       .  S
C1194      H1207   1.107       .  S
C1196      C1197   1.404       .  A
C1196      C1201   1.508       .  S
C1197      C1198   1.411       .  A
C1197      H1202   1.083       .  S
C1198      C1199   1.424       .  A
C1199      C1200   1.408       .  A
C1199      C1203   1.507       .  S
C1200      H1204   1.085       .  S
C1201      H1211   1.111       .  S
C1201      H1212   1.110       .  S
C1201      H1213   1.111       .  S
C1203      H1214   1.108       .  S
C1203      H1215   1.110       .  S
C1203      H1216   1.111       .  S
C1217      C1218   1.401       .  A
C1217      C1222   1.405       .  A
C1217      H1227   1.085       .  S
C1218      C1219   1.407       .  A
C1218      C1223   1.477       .  S
C1219      C1220   1.397       .  A
C1219      C1224   1.501       .  S
C1220      C1221   1.403       .  A
C1220      H1225   1.082       .  S
C1221      C1222   1.419       .  A
C1222      C1226   1.505       .  S
C1223      C1228   1.411       .  A
C1223      C1232   1.399       .  A
C1224      H1240   1.110       .  S
C1224      H1241   1.107       .  S
C1224      H1242   1.111       .  S
C1226      H1237   1.111       .  S
C1226      H1238   1.110       .  S
C1226      H1239   1.102       .  S
C1228      C1229   1.402       .  A
C1228      C1233   1.506       .  S
C1229      C1230   1.401       .  A
C1229      H1234   1.082       .  S
C1230      C1231   1.414       .  A
C1231      C1232   1.400       .  A
C1231      C1235   1.508       .  S
C1232      H1236   1.085       .  S
C1233      H1243   1.111       .  S
C1233      H1244   1.110       .  S
C1233      H1245   1.110       .  S
C1235      H1246   1.110       .  S
C1235      H1247   1.108       .  S
C1235      H1248   1.110       .  S
C1249      C1250   1.402       .  A
C1249      C1254   1.405       .  A
C1249      H1259   1.084       .  S
C1250      C1251   1.410       .  A
C1250      C1255   1.484       .  S
C1251      C1252   1.402       .  A
C1251      C1256   1.506       .  S
C1252      C1253   1.403       .  A
C1252      H1257   1.084       .  S
C1253      C1254   1.415       .  A
C1254      C1258   1.504       .  S
C1255      C1260   1.409       .  A
C1255      C1264   1.398       .  A
C1256      H1272   1.110       .  S
C1256      H1273   1.110       .  S
C1256      H1274   1.111       .  S
C1258      H1269   1.110       .  S
C1258      H1270   1.111       .  S
C1258      H1271   1.106       .  S
C1260      C1261   1.406       .  A
C1260      C1265   1.507       .  S
C1261      C1262   1.410       .  A
C1261      H1266   1.084       .  S
C1262      C1263   1.425       .  A
C1263      C1264   1.406       .  A
C1263      C1267   1.508       .  S
C1264      H1268   1.084       .  S
C1265      H1275   1.111       .  S
C1265      H1276   1.110       .  S
C1265      H1277   1.111       .  S
C1267      H1278   1.109       .  S
C1267      H1279   1.110       .  S
C1267      H1280   1.111       .  S
C1281      C1282   1.399       .  A
C1281      C1286   1.404       .  A
C1281      H1291   1.085       .  S
C1282      C1283   1.408       .  A
C1282      C1287   1.481       .  S
C1283      C1284   1.403       .  A
C1283      C1288   1.505       .  S
C1284      C1285   1.407       .  A
C1284      H1289   1.084       .  S
C1285      C1286   1.422       .  A
C1286      C1290   1.507       .  S
C1287      C1292   1.411       .  A
C1287      C1296   1.401       .  A
C1288      H1304   1.110       .  S
C1288      H1305   1.110       .  S
C1288      H1306   1.111       .  S
C1290      H1301   1.111       .  S
C1290      H1302   1.110       .  S
C1290      H1303   1.101       .  S
C1292      C1293   1.402       .  A
C1292      C1297   1.506       .  S
C1293      C1294   1.402       .  A
C1293      H1298   1.084       .  S
C1294      C1295   1.414       .  A
C1295      C1296   1.403       .  A
C1295      C1299   1.505       .  S
C1296      H1300   1.084       .  S
C1297      H1307   1.111       .  S
C1297      H1308   1.110       .  S
C1297      H1309   1.110       .  S
C1299      H1310   1.110       .  S
C1299      H1311   1.107       .  S
C1299      H1312   1.110       .  S
C1313      C1314   1.399       .  A
C1313      C1318   1.408       .  A
C1313      H1323   1.084       .  S
C1314      C1315   1.409       .  A
C1314      C1319   1.487       .  S
C1315      C1316   1.403       .  A
C1315      C1320   1.502       .  S
C1316      C1317   1.408       .  A
C1316      H1321   1.084       .  S
C1317      C1318   1.425       .  A
C1318      C1322   1.507       .  S
C1319      C1324   1.412       .  A
C1319      C1328   1.402       .  A
C1320      H1336   1.110       .  S
C1320      H1337   1.109       .  S
C1320      H1338   1.111       .  S
C1322      H1333   1.111       .  S
C1322      H1334   1.110       .  S
C1322      H1335   1.110       .  S
C1324      C1325   1.405       .  A
C1324      C1329   1.506       .  S
C1325      C1326   1.403       .  A
C1325      H1330   1.084       .  S
C1326      C1327   1.414       .  A
C1327      C1328   1.404       .  A
C1327      C1331   1.506       .  S
C1328      H1332   1.084       .  S
C1329      H1339   1.111       .  S
C1329      H1340   1.110       .  S
C1329      H1341   1.110       .  S
C1331      H1342   1.110       .  S
C1331      H1343   1.108       .  S
C1331      H1344   1.110       .  S
C1345      C1346   1.403       .  A
C1345      C1350   1.408       .  A
C1345      H1355   1.084       .  S
C1346      C1347   1.411       .  A
C1346      C1351   1.483       .  S
C1347      C1348   1.398       .  A
C1347      C1352   1.507       .  S
C1348      C1349   1.400       .  A
C1348      H1353   1.083       .  S
C1349      C1350   1.415       .  A
C1350      C1354   1.505       .  S
C1351      C1356   1.406       .  A
C1351      C1360   1.398       .  A
C1352      H1368   1.110       .  S
C1352      H1369   1.110       .  S
C1352      H1370   1.111       .  S
C1354      H1365   1.110       .  S
C1354      H1366   1.110       .  S
C1354      H1367   1.108       .  S
C1356      C1357   1.403       .  A
C1356      C1361   1.505       .  S
C1357      C1358   1.413       .  A
C1357      H1362   1.083       .  S
C1358      C1359   1.426       .  A
C1359      C1360   1.406       .  A
C1359      C1363   1.508       .  S
C1360      H1364   1.084       .  S
C1361      H1371   1.111       .  S
C1361      H1372   1.110       .  S
C1361      H1373   1.110       .  S
C1363      H1374   1.111       .  S
C1363      H1375   1.110       .  S
C1363      H1376   1.110       .  S
C1377      C1378   1.400       .  A
C1377      C1382   1.406       .  A
C1377      H1387   1.084       .  S
C1378      C1379   1.408       .  A
C1378      C1383   1.483       .  S
C1379      C1380   1.401       .  A
C1379      C1384   1.505       .  S
C1380      C1381   1.408       .  A
C1380      H1385   1.083       .  S
C1381      C1382   1.424       .  A
C1382      C1386   1.506       .  S
C1383      C1388   1.412       .  A
C1383      C1392   1.404       .  A
C1384      H1400   1.109       .  S
C1384      H1401   1.110       .  S
C1384      H1402   1.111       .  S
C1386      H1397   1.111       .  S
C1386      H1398   1.106       .  S
C1386      H1399   1.110       .  S
C1388      C1389   1.399       .  A
C1388      C1393   1.507       .  S
C1389      C1390   1.400       .  A
C1389      H1394   1.083       .  S
C1390      C1391   1.413       .  A
C1391      C1392   1.405       .  A
C1391      C1395   1.505       .  S
C1392      H1396   1.084       .  S
C1393      H1403   1.111       .  S
C1393      H1404   1.109       .  S
C1393      H1405   1.110       .  S
C1395      H1406   1.110       .  S
C1395      H1407   1.108       .  S
C1395      H1408   1.110       .  S
C1409      C1410   1.400       .  A
C1409      C1414   1.403       .  A
C1409      H1419   1.085       .  S
C1410      C1411   1.410       .  A
C1410      C1415   1.483       .  S
C1411      C1412   1.405       .  A
C1411      C1416   1.504       .  S
C1412      C1413   1.405       .  A
C1412      H1417   1.084       .  S
C1413      C1414   1.419       .  A
C1414      C1418   1.504       .  S
C1415      C1420   1.412       .  A
C1415      C1424   1.402       .  A
C1416      H1432   1.110       .  S
C1416      H1433   1.110       .  S
C1416      H1434   1.111       .  S
C1418      H1429   1.111       .  S
C1418      H1430   1.110       .  S
C1418      H1431   1.101       .  S
C1420      C1421   1.403       .  A
C1420      C1425   1.506       .  S
C1421      C1422   1.402       .  A
C1421      H1426   1.084       .  S
C1422      C1423   1.414       .  A
C1423      C1424   1.403       .  A
C1423      C1427   1.506       .  S
C1424      H1428   1.084       .  S
C1425      H1435   1.111       .  S
C1425      H1436   1.110       .  S
C1425      H1437   1.110       .  S
C1427      H1438   1.110       .  S
C1427      H1439   1.108       .  S
C1427      H1440   1.110       .  S
C1441      C1442   1.403       .  A
C1441      C1446   1.404       .  A
C1441      H1451   1.084       .  S
C1442      C1443   1.411       .  A
C1442      C1447   1.483       .  S
C1443      C1444   1.401       .  A
C1443      C1448   1.506       .  S
C1444      C1445   1.401       .  A
C1444      H1449   1.083       .  S
C1445      C1446   1.414       .  A
C1446      C1450   1.506       .  S
C1447      C1452   1.408       .  A
C1447      C1456   1.399       .  A
C1448      H1464   1.110       .  S
C1448      H1465   1.110       .  S
C1448      H1466   1.111       .  S
C1450      H1461   1.110       .  S
C1450      H1462   1.111       .  S
C1450      H1463   1.108       .  S
C1452      C1453   1.403       .  A
C1452      C1457   1.503       .  S
C1453      C1454   1.407       .  A
C1453      H1458   1.084       .  S
C1454      C1455   1.422       .  A
C1455      C1456   1.406       .  A
C1455      C1459   1.508       .  S
C1456      H1460   1.084       .  S
C1457      H1467   1.111       .  S
C1457      H1468   1.110       .  S
C1457      H1469   1.109       .  S
C1459      H1470   1.111       .  S
C1459      H1471   1.111       .  S
C1459      H1472   1.109       .  S
C1473      C1474   1.400       .  A
C1473      C1478   1.399       .  A
C1473      H1483   1.085       .  S
C1474      C1475   1.409       .  A
C1474      C1479   1.475       .  S
C1475      C1476   1.401       .  A
C1475      C1480   1.505       .  S
C1476      C1477   1.402       .  A
C1476      H1481   1.082       .  S
C1477      C1478   1.413       .  A
C1478      C1482   1.507       .  S
C1479      C1484   1.408       .  A
C1479      C1488   1.398       .  A
C1480      H1496   1.110       .  S
C1480      H1497   1.110       .  S
C1480      H1498   1.111       .  S
C1482      H1493   1.110       .  S
C1482      H1494   1.110       .  S
C1482      H1495   1.108       .  S
C1484      C1485   1.401       .  A
C1484      C1489   1.505       .  S
C1485      C1486   1.406       .  A
C1485      H1490   1.084       .  S
C1486      C1487   1.419       .  A
C1487      C1488   1.402       .  A
C1487      C1491   1.507       .  S
C1488      H1492   1.085       .  S
C1489      H1499   1.111       .  S
C1489      H1500   1.110       .  S
C1489      H1501   1.110       .  S
C1491      H1502   1.109       .  S
C1491      H1503   1.109       .  S
C1491      H1504   1.111       .  S
C1505      C1506   1.400       .  A
C1505      C1510   1.400       .  A
C1505      H1515   1.084       .  S
C1506      C1507   1.411       .  A
C1506      C1511   1.478       .  S
C1507      C1508   1.403       .  A
C1507      C1512   1.505       .  S
C1508      C1509   1.402       .  A
C1508      H1513   1.084       .  S
C1509      C1510   1.414       .  A
C1510      C1514   1.508       .  S
C1511      C1516   1.407       .  A
C1511      C1520   1.399       .  A
C1512      H1528   1.110       .  S
C1512      H1529   1.110       .  S
C1512      H1530   1.111       .  S
C1514      H1525   1.110       .  S
C1514      H1526   1.110       .  S
C1514      H1527   1.108       .  S
C1516      C1517   1.400       .  A
C1516      C1521   1.504       .  S
C1517      C1518   1.406       .  A
C1517      H1522   1.083       .  S
C1518      C1519   1.421       .  A
C1519      C1520   1.407       .  A
C1519      C1523   1.505       .  S
C1520      H1524   1.084       .  S
C1521      H1531   1.111       .  S
C1521      H1532   1.110       .  S
C1521      H1533   1.110       .  S
C1523      H1534   1.109       .  S
C1523      H1535   1.107       .  S
C1523      H1536   1.111       .  S
C1537      C1538   1.401       .  A
C1537      C1542   1.396       .  A
C1537      H1547   1.085       .  S
C1538      C1539   1.411       .  A
C1538      C1543   1.479       .  S
C1539      C1540   1.402       .  A
C1539      C1544   1.506       .  S
C1540      C1541   1.402       .  A
C1540      H1545   1.083       .  S
C1541      C1542   1.412       .  A
C1542      C1546   1.508       .  S
C1543      C1548   1.409       .  A
C1543      C1552   1.400       .  A
C1544      H1560   1.109       .  S
C1544      H1561   1.110       .  S
C1544      H1562   1.111       .  S
C1546      H1557   1.110       .  S
C1546      H1558   1.109       .  S
C1546      H1559   1.107       .  S
C1548      C1549   1.398       .  A
C1548      C1553   1.506       .  S
C1549      C1550   1.408       .  A
C1549      H1554   1.083       .  S
C1550      C1551   1.421       .  A
C1551      C1552   1.403       .  A
C1551      C1555   1.506       .  S
C1552      H1556   1.084       .  S
C1553      H1563   1.111       .  S
C1553      H1564   1.108       .  S
C1553      H1565   1.109       .  S
C1555      H1566   1.109       .  S
C1555      H1567   1.106       .  S
C1555      H1568   1.111       .  S
C1569      C1570   1.399       .  A
C1569      C1574   1.403       .  A
C1569      H1579   1.085       .  S
C1570      C1571   1.411       .  A
C1570      C1575   1.473       .  S
C1571      C1572   1.397       .  A
C1571      C1576   1.510       .  S
C1572      C1573   1.406       .  A
C1572      H1577   1.082       .  S
C1573      C1574   1.420       .  A
C1574      C1578   1.507       .  S
C1575      C1580   1.410       .  A
C1575      C1584   1.401       .  A
C1576      H1592   1.110       .  S
C1576      H1593   1.109       .  S
C1576      H1594   1.110       .  S
C1578      H1589   1.110       .  S
C1578      H1590   1.111       .  S
C1578      H1591   1.107       .  S
C1580      C1581   1.394       .  A
C1580      C1585   1.508       .  S
C1581      C1582   1.399       .  A
C1581      H1586   1.084       .  S
C1582      C1583   1.413       .  A
C1583      C1584   1.403       .  A
C1583      C1587   1.503       .  S
C1584      H1588   1.084       .  S
C1585      H1595   1.111       .  S
C1585      H1596   1.111       .  S
C1585      H1597   1.108       .  S
C1587      H1598   1.110       .  S
C1587      H1599   1.107       .  S
C1587      H1600   1.109       .  S
C1601      C1602   1.402       .  A
C1601      C1606   1.408       .  A
C1601      H1611   1.084       .  S
C1602      C1603   1.409       .  A
C1602      C1607   1.488       .  S
C1603      C1604   1.403       .  A
C1603      C1608   1.503       .  S
C1604      C1605   1.405       .  A
C1604      H1609   1.084       .  S
C1605      C1606   1.422       .  A
C1606      C1610   1.508       .  S
C1607      C1612   1.410       .  A
C1607      C1616   1.402       .  A
C1608      H1624   1.110       .  S
C1608      H1625   1.110       .  S
C1608      H1626   1.111       .  S
C1610      H1621   1.110       .  S
C1610      H1622   1.111       .  S
C1610      H1623   1.103       .  S
C1612      C1613   1.407       .  A
C1612      C1617   1.505       .  S
C1613      C1614   1.407       .  A
C1613      H1618   1.083       .  S
C1614      C1615   1.416       .  A
C1615      C1616   1.404       .  A
C1615      C1619   1.506       .  S
C1616      H1620   1.084       .  S
C1617      H1627   1.111       .  S
C1617      H1628   1.110       .  S
C1617      H1629   1.110       .  S
C1619      H1630   1.110       .  S
C1619      H1631   1.107       .  S
C1619      H1632   1.110       .  S
C1633      C1634   1.399       .  A
C1633      C1638   1.400       .  A
C1633      H1643   1.084       .  S
C1634      C1635   1.409       .  A
C1634      C1639   1.473       .  S
C1635      C1636   1.403       .  A
C1635      C1640   1.507       .  S
C1636      C1637   1.405       .  A
C1636      H1641   1.084       .  S
C1637      C1638   1.416       .  A
C1638      C1642   1.509       .  S
C1639      C1644   1.409       .  A
C1639      C1648   1.398       .  A
C1640      H1656   1.110       .  S
C1640      H1657   1.110       .  S
C1640      H1658   1.111       .  S
C1642      H1653   1.111       .  S
C1642      H1654   1.109       .  S
C1642      H1655   1.111       .  S
C1644      C1645   1.401       .  A
C1644      C1649   1.506       .  S
C1645      C1646   1.402       .  A
C1645      H1650   1.084       .  S
C1646      C1647   1.415       .  A
C1647      C1648   1.399       .  A
C1647      C1651   1.505       .  S
C1648      H1652   1.085       .  S
C1649      H1659   1.111       .  S
C1649      H1660   1.110       .  S
C1649      H1661   1.110       .  S
C1651      H1662   1.110       .  S
C1651      H1663   1.107       .  S
C1651      H1664   1.110       .  S
C1665      C1666   1.400       .  A
C1665      C1670   1.399       .  A
C1665      H1675   1.085       .  S
C1666      C1667   1.412       .  A
C1666      C1671   1.476       .  S
C1667      C1668   1.401       .  A
C1667      C1672   1.506       .  S
C1668      C1669   1.403       .  A
C1668      H1673   1.084       .  S
C1669      C1670   1.413       .  A
C1670      C1674   1.505       .  S
C1671      C1676   1.407       .  A
C1671      C1680   1.397       .  A
C1672      H1688   1.108       .  S
C1672      H1689   1.111       .  S
C1672      H1690   1.110       .  S
C1674      H1685   1.110       .  S
C1674      H1686   1.109       .  S
C1674      H1687   1.107       .  S
C1676      C1677   1.404       .  A
C1676      C1681   1.507       .  S
C1677      C1678   1.410       .  A
C1677      H1682   1.084       .  S
C1678      C1679   1.424       .  A
C1679      C1680   1.403       .  A
C1679      C1683   1.508       .  S
C1680      H1684   1.085       .  S
C1681      H1691   1.111       .  S
C1681      H1692   1.110       .  S
C1681      H1693   1.110       .  S
C1683      H1694   1.111       .  S
C1683      H1695   1.110       .  S
C1683      H1696   1.109       .  S
C1697      C1698   1.399       .  A
C1697      C1702   1.408       .  A
C1697      H1707   1.084       .  S
C1698      C1699   1.409       .  A
C1698      C1703   1.486       .  S
C1699      C1700   1.406       .  A
C1699      C1704   1.507       .  S
C1700      C1701   1.410       .  A
C1700      H1705   1.083       .  S
C1701      C1702   1.426       .  A
C1702      C1706   1.508       .  S
C1703      C1708   1.410       .  A
C1703      C1712   1.403       .  A
C1704      H1720   1.110       .  S
C1704      H1721   1.111       .  S
C1704      H1722   1.111       .  S
C1706      H1717   1.110       .  S
C1706      H1718   1.111       .  S
C1706      H1719   1.111       .  S
C1708      C1709   1.403       .  A
C1708      C1713   1.506       .  S
C1709      C1710   1.404       .  A
C1709      H1714   1.081       .  S
C1710      C1711   1.415       .  A
C1711      C1712   1.406       .  A
C1711      C1715   1.506       .  S
C1712      H1716   1.084       .  S
C1713      H1723   1.111       .  S
C1713      H1724   1.110       .  S
C1713      H1725   1.110       .  S
C1715      H1726   1.110       .  S
C1715      H1727   1.108       .  S
C1715      H1728   1.110       .  S
C1729      C1730   1.399       .  A
C1729      C1734   1.408       .  A
C1729      H1739   1.084       .  S
C1730      C1731   1.406       .  A
C1730      C1735   1.482       .  S
C1731      C1732   1.402       .  A
C1731      C1736   1.505       .  S
C1732      C1733   1.413       .  A
C1732      H1737   1.083       .  S
C1733      C1734   1.426       .  A
C1734      C1738   1.507       .  S
C1735      C1740   1.411       .  A
C1735      C1744   1.400       .  A
C1736      H1752   1.109       .  S
C1736      H1753   1.110       .  S
C1736      H1754   1.111       .  S
C1738      H1749   1.109       .  S
C1738      H1750   1.111       .  S
C1738      H1751   1.110       .  S
C1740      C1741   1.406       .  A
C1740      C1745   1.505       .  S
C1741      C1742   1.404       .  A
C1741      H1746   1.083       .  S
C1742      C1743   1.415       .  A
C1743      C1744   1.400       .  A
C1743      C1747   1.508       .  S
C1744      H1748   1.085       .  S
C1745      H1755   1.111       .  S
C1745      H1756   1.110       .  S
C1745      H1757   1.110       .  S
C1747      H1758   1.110       .  S
C1747      H1759   1.108       .  S
C1747      H1760   1.110       .  S
C1761      C1762   1.403       .  A
C1761      C1766   1.405       .  A
C1761      H1771   1.084       .  S
C1762      C1763   1.410       .  A
C1762      C1767   1.479       .  S
C1763      C1764   1.399       .  A
C1763      C1768   1.508       .  S
C1764      C1765   1.403       .  A
C1764      H1769   1.082       .  S
C1765      C1766   1.415       .  A
C1766      C1770   1.505       .  S
C1767      C1772   1.410       .  A
C1767      C1776   1.400       .  A
C1768      H1784   1.110       .  S
C1768      H1785   1.108       .  S
C1768      H1786   1.111       .  S
C1770      H1781   1.110       .  S
C1770      H1782   1.110       .  S
C1770      H1783   1.108       .  S
C1772      C1773   1.402       .  A
C1772      C1777   1.509       .  S
C1773      C1774   1.408       .  A
C1773      H1778   1.083       .  S
C1774      C1775   1.419       .  A
C1775      C1776   1.405       .  A
C1775      C1779   1.507       .  S
C1776      H1780   1.084       .  S
C1777      H1787   1.111       .  S
C1777      H1788   1.110       .  S
C1777      H1789   1.108       .  S
C1779      H1790   1.106       .  S
C1779      H1791   1.110       .  S
C1779      H1792   1.111       .  S
C1793      C1794   1.403       .  A
C1793      C1798   1.407       .  A
C1793      H1803   1.084       .  S
C1794      C1795   1.411       .  A
C1794      C1799   1.481       .  S
C1795      C1796   1.397       .  A
C1795      C1800   1.507       .  S
C1796      C1797   1.400       .  A
C1796      H1801   1.084       .  S
C1797      C1798   1.415       .  A
C1798      C1802   1.505       .  S
C1799      C1804   1.406       .  A
C1799      C1808   1.397       .  A
C1800      H1816   1.110       .  S
C1800      H1817   1.110       .  S
C1800      H1818   1.111       .  S
C1802      H1813   1.110       .  S
C1802      H1814   1.111       .  S
C1802      H1815   1.108       .  S
C1804      C1805   1.404       .  A
C1804      C1809   1.508       .  S
C1805      C1806   1.412       .  A
C1805      H1810   1.082       .  S
C1806      C1807   1.428       .  A
C1807      C1808   1.406       .  A
C1807      C1811   1.506       .  S
C1808      H1812   1.085       .  S
C1809      H1819   1.111       .  S
C1809      H1820   1.110       .  S
C1809      H1821   1.110       .  S
C1811      H1822   1.111       .  S
C1811      H1823   1.110       .  S
C1811      H1824   1.109       .  S
C1825      C1826   1.401       .  A
C1825      C1830   1.404       .  A
C1825      H1835   1.084       .  S
C1826      C1827   1.409       .  A
C1826      C1831   1.480       .  S
C1827      C1828   1.401       .  A
C1827      C1832   1.507       .  S
C1828      C1829   1.404       .  A
C1828      H1833   1.083       .  S
C1829      C1830   1.417       .  A
C1830      C1834   1.505       .  S
C1831      C1836   1.407       .  A
C1831      C1840   1.399       .  A
C1832      H1848   1.110       .  S
C1832      H1849   1.109       .  S
C1832      H1850   1.111       .  S
C1834      H1845   1.110       .  S
C1834      H1846   1.110       .  S
C1834      H1847   1.107       .  S
C1836      C1837   1.402       .  A
C1836      C1841   1.508       .  S
C1837      C1838   1.411       .  A
C1837      H1842   1.083       .  S
C1838      C1839   1.424       .  A
C1839      C1840   1.407       .  A
C1839      C1843   1.507       .  S
C1840      H1844   1.084       .  S
C1841      H1851   1.111       .  S
C1841      H1852   1.110       .  S
C1841      H1853   1.109       .  S
C1843      H1854   1.110       .  S
C1843      H1855   1.109       .  S
C1843      H1856   1.111       .  S
C1857      C1858   1.402       .  A
C1857      C1862   1.401       .  A
C1857      H1867   1.084       .  S
C1858      C1859   1.410       .  A
C1858      C1863   1.480       .  S
C1859      C1860   1.401       .  A
C1859      C1864   1.506       .  S
C1860      C1861   1.403       .  A
C1860      H1865   1.084       .  S
C1861      C1862   1.414       .  A
C1862      C1866   1.507       .  S
C1863      C1868   1.408       .  A
C1863      C1872   1.400       .  A
C1864      H1880   1.110       .  S
C1864      H1881   1.110       .  S
C1864      H1882   1.111       .  S
C1866      H1877   1.110       .  S
C1866      H1878   1.110       .  S
C1866      H1879   1.108       .  S
C1868      C1869   1.402       .  A
C1868      C1873   1.506       .  S
C1869      C1870   1.407       .  A
C1869      H1874   1.084       .  S
C1870      C1871   1.421       .  A
C1871      C1872   1.403       .  A
C1871      C1875   1.507       .  S
C1872      H1876   1.085       .  S
C1873      H1883   1.111       .  S
C1873      H1884   1.109       .  S
C1873      H1885   1.111       .  S
C1875      H1886   1.111       .  S
C1875      H1887   1.101       .  S
C1875      H1888   1.110       .  S
C1889      C1890   1.402       .  A
C1889      C1894   1.405       .  A
C1889      H1899   1.084       .  S
C1890      C1891   1.413       .  A
C1890      C1895   1.483       .  S
C1891      C1892   1.401       .  A
C1891      C1896   1.507       .  S
C1892      C1893   1.403       .  A
C1892      H1897   1.083       .  S
C1893      C1894   1.416       .  A
C1894      C1898   1.507       .  S
C1895      C1900   1.408       .  A
C1895      C1904   1.399       .  A
C1896      H1912   1.111       .  S
C1896      H1913   1.110       .  S
C1896      H1914   1.108       .  S
C1898      H1909   1.110       .  S
C1898      H1910   1.110       .  S
C1898      H1911   1.108       .  S
C1900      C1901   1.405       .  A
C1900      C1905   1.506       .  S
C1901      C1902   1.410       .  A
C1901      H1906   1.083       .  S
C1902      C1903   1.423       .  A
C1903      C1904   1.407       .  A
C1903      C1907   1.508       .  S
C1904      H1908   1.084       .  S
C1905      H1915   1.111       .  S
C1905      H1916   1.110       .  S
C1905      H1917   1.110       .  S
C1907      H1918   1.111       .  S
C1907      H1919   1.110       .  S
C1907      H1920   1.110       .  S
C1921      C1922   1.401       .  A
C1921      C1926   1.401       .  A
C1921      H1931   1.084       .  S
C1922      C1923   1.410       .  A
C1922      C1927   1.476       .  S
C1923      C1924   1.399       .  A
C1923      C1928   1.506       .  S
C1924      C1925   1.401       .  A
C1924      H1929   1.084       .  S
C1925      C1926   1.413       .  A
C1926      C1930   1.505       .  S
C1927      C1932   1.407       .  A
C1927      C1936   1.399       .  A
C1928      H1944   1.110       .  S
C1928      H1945   1.110       .  S
C1928      H1946   1.111       .  S
C1930      H1941   1.107       .  S
C1930      H1942   1.110       .  S
C1930      H1943   1.110       .  S
C1932      C1933   1.401       .  A
C1932      C1937   1.508       .  S
C1933      C1934   1.409       .  A
C1933      H1938   1.084       .  S
C1934      C1935   1.422       .  A
C1935      C1936   1.404       .  A
C1935      C1939   1.508       .  S
C1936      H1940   1.085       .  S
C1937      H1947   1.111       .  S
C1937      H1948   1.110       .  S
C1937      H1949   1.111       .  S
C1939      H1950   1.109       .  S
C1939      H1951   1.110       .  S
C1939      H1952   1.111       .  S
C1953      C1954   1.398       .  A
C1953      C1958   1.406       .  A
C1953      H1963   1.084       .  S
C1954      C1955   1.407       .  A
C1954      C1959   1.482       .  S
C1955      C1956   1.404       .  A
C1955      C1960   1.507       .  S
C1956      C1957   1.413       .  A
C1956      H1961   1.083       .  S
C1957      C1958   1.426       .  A
C1958      C1962   1.506       .  S
C1959      C1964   1.410       .  A
C1959      C1968   1.402       .  A
C1960      H1976   1.110       .  S
C1960      H1977   1.110       .  S
C1960      H1978   1.111       .  S
C1962      H1973   1.111       .  S
C1962      H1974   1.109       .  S
C1962      H1975   1.109       .  S
C1964      C1965   1.401       .  A
C1964      C1969   1.507       .  S
C1965      C1966   1.403       .  A
C1965      H1970   1.084       .  S
C1966      C1967   1.415       .  A
C1967      C1968   1.405       .  A
C1967      C1971   1.502       .  S
C1968      H1972   1.084       .  S
C1969      H1979   1.111       .  S
C1969      H1980   1.110       .  S
C1969      H1981   1.110       .  S
C1971      H1982   1.110       .  S
C1971      H1983   1.106       .  S
C1971      H1984   1.110       .  S
C1985      C1986   1.399       .  A
C1985      C1990   1.398       .  A
C1985      H1995   1.085       .  S
C1986      C1987   1.409       .  A
C1986      C1991   1.478       .  S
C1987      C1988   1.405       .  A
C1987      C1992   1.504       .  S
C1988      C1989   1.404       .  A
C1988      H1993   1.084       .  S
C1989      C1990   1.414       .  A
C1990      C1994   1.506       .  S
C1991      C1996   1.407       .  A
C1991      C2000   1.397       .  A
C1992      H2008   1.110       .  S
C1992      H2009   1.110       .  S
C1992      H2010   1.111       .  S
C1994      H2005   1.109       .  S
C1994      H2006   1.109       .  S
C1994      H2007   1.106       .  S
C1996      C1997   1.402       .  A
C1996      C2001   1.508       .  S
C1997      C1998   1.411       .  A
C1997      H2002   1.083       .  S
C1998      C1999   1.428       .  A
C1999      C2000   1.405       .  A
C1999      C2003   1.509       .  S
C2000      H2004   1.085       .  S
C2001      H2011   1.111       .  S
C2001      H2012   1.110       .  S
C2001      H2013   1.110       .  S
C2003      H2014   1.108       .  S
C2003      H2015   1.110       .  S
C2003      H2016   1.111       .  S
C2017      C2018   1.402       .  A
C2017      C2022   1.405       .  A
C2017      H2027   1.084       .  S
C2018      C2019   1.410       .  A
C2018      C2023   1.476       .  S
C2019      C2020   1.395       .  A
C2019      C2024   1.507       .  S
C2020      C2021   1.400       .  A
C2020      H2025   1.084       .  S
C2021      C2022   1.415       .  A
C2022      C2026   1.505       .  S
C2023      C2028   1.405       .  A
C2023      C2032   1.397       .  A
C2024      H2040   1.110       .  S
C2024      H2041   1.110       .  S
C2024      H2042   1.111       .  S
C2026      H2037   1.110       .  S
C2026      H2038   1.110       .  S
C2026      H2039   1.108       .  S
C2028      C2029   1.399       .  A
C2028      C2033   1.505       .  S
C2029      C2030   1.411       .  A
C2029      H2034   1.083       .  S
C2030      C2031   1.426       .  A
C2031      C2032   1.405       .  A
C2031      C2035   1.508       .  S
C2032      H2036   1.085       .  S
C2033      H2043   1.111       .  S
C2033      H2044   1.108       .  S
C2033      H2045   1.110       .  S
C2035      H2046   1.110       .  S
C2035      H2047   1.109       .  S
C2035      H2048   1.111       .  S
C2049      C2050   1.401       .  A
C2049      C2054   1.402       .  A
C2049      H2059   1.085       .  S
C2050      C2051   1.410       .  A
C2050      C2055   1.478       .  S
C2051      C2052   1.400       .  A
C2051      C2056   1.506       .  S
C2052      C2053   1.402       .  A
C2052      H2057   1.084       .  S
C2053      C2054   1.414       .  A
C2054      C2058   1.503       .  S
C2055      C2060   1.409       .  A
C2055      C2064   1.399       .  A
C2056      H2072   1.110       .  S
C2056      H2073   1.110       .  S
C2056      H2074   1.111       .  S
C2058      H2069   1.110       .  S
C2058      H2070   1.110       .  S
C2058      H2071   1.105       .  S
C2060      C2061   1.404       .  A
C2060      C2065   1.507       .  S
C2061      C2062   1.407       .  A
C2061      H2066   1.084       .  S
C2062      C2063   1.420       .  A
C2063      C2064   1.403       .  A
C2063      C2067   1.507       .  S
C2064      H2068   1.085       .  S
C2065      H2075   1.111       .  S
C2065      H2076   1.110       .  S
C2065      H2077   1.111       .  S
C2067      H2078   1.109       .  S
C2067      H2079   1.109       .  S
C2067      H2080   1.111       .  S
C2081      C2082   1.400       .  A
C2081      C2086   1.404       .  A
C2081      H2091   1.085       .  S
C2082      C2083   1.410       .  A
C2082      C2087   1.481       .  S
C2083      C2084   1.405       .  A
C2083      C2088   1.507       .  S
C2084      C2085   1.406       .  A
C2084      H2089   1.084       .  S
C2085      C2086   1.419       .  A
C2086      C2090   1.509   1_556  S
C2087      C2092   1.410       .  A
C2087      C2096   1.401       .  A
C2088      H2104   1.110       .  S
C2088      H2105   1.110       .  S
C2088      H2106   1.111       .  S
C2090      H2101   1.111       .  S
C2090      H2102   1.110   1_554  S
C2090      H2103   1.106       .  S
C2092      C2093   1.401       .  A
C2092      C2097   1.506       .  S
C2093      C2094   1.403       .  A
C2093      H2098   1.084       .  S
C2094      C2095   1.416       .  A
C2095      C2096   1.405       .  A
C2095      C2099   1.504       .  S
C2096      H2100   1.084       .  S
C2097      H2107   1.111       .  S
C2097      H2108   1.110       .  S
C2097      H2109   1.110       .  S
C2099      H2110   1.110       .  S
C2099      H2111   1.107       .  S
C2099      H2112   1.110       .  S
C2113      C2114   1.403       .  A
C2113      C2118   1.408       .  A
C2113      H2123   1.084       .  S
C2114      C2115   1.411       .  A
C2114      C2119   1.490       .  S
C2115      C2116   1.405       .  A
C2115      C2120   1.506       .  S
C2116      C2117   1.405       .  A
C2116      H2121   1.084       .  S
C2117      C2118   1.418       .  A
C2118      C2122   1.505       .  S
C2119      C2124   1.409       .  A
C2119      C2128   1.399       .  A
C2120      H2136   1.110       .  S
C2120      H2137   1.110       .  S
C2120      H2138   1.111       .  S
C2122      H2133   1.110       .  S
C2122      H2134   1.110       .  S
C2122      H2135   1.107       .  S
C2124      C2125   1.407       .  A
C2124      C2129   1.504       .  S
C2125      C2126   1.411       .  A
C2125      H2130   1.084       .  S
C2126      C2127   1.424       .  A
C2127      C2128   1.409       .  A
C2127      C2131   1.507       .  S
C2128      H2132   1.084       .  S
C2129      H2139   1.111       .  S
C2129      H2140   1.108       .  S
C2129      H2141   1.110       .  S
C2131      H2142   1.110       .  S
C2131      H2143   1.109       .  S
C2131      H2144   1.111       .  S
C2145      C2146   1.401       .  A
C2145      C2150   1.403       .  A
C2145      H2155   1.084       .  S
C2146      C2147   1.410       .  A
C2146      C2151   1.481       .  S
C2147      C2148   1.403       .  A
C2147      C2152   1.506       .  S
C2148      C2149   1.403       .  A
C2148      H2153   1.082       .  S
C2149      C2150   1.415       .  A
C2150      C2154   1.507       .  S
C2151      C2156   1.408       .  A
C2151      C2160   1.398       .  A
C2152      H2168   1.110       .  S
C2152      H2169   1.110       .  S
C2152      H2170   1.111       .  S
C2154      H2165   1.110       .  S
C2154      H2166   1.111       .  S
C2154      H2167   1.108       .  S
C2156      C2157   1.405       .  A
C2156      C2161   1.508       .  S
C2157      C2158   1.411       .  A
C2157      H2162   1.083       .  S
C2158      C2159   1.423       .  A
C2159      C2160   1.405       .  A
C2159      C2163   1.506       .  S
C2160      H2164   1.084       .  S
C2161      H2171   1.111       .  S
C2161      H2172   1.110       .  S
C2161      H2173   1.110       .  S
C2163      H2174   1.111       .  S
C2163      H2175   1.107   1_556  S
C2163      H2176   1.109       .  S
C2177      C2178   1.398       .  A
C2177      C2182   1.396       .  A
C2177      H2187   1.085       .  S
C2178      C2179   1.410       .  A
C2178      C2183   1.478       .  S
C2179      C2180   1.404       .  A
C2179      C2184   1.505       .  S
C2180      C2181   1.405       .  A
C2180      H2185   1.084       .  S
C2181      C2182   1.417       .  A
C2182      C2186   1.508       .  S
C2183      C2188   1.409       .  A
C2183      C2192   1.401       .  A
C2184      H2200   1.110       .  S
C2184      H2201   1.110       .  S
C2184      H2202   1.111       .  S
C2186      H2197   1.110       .  S
C2186      H2198   1.110       .  S
C2186      H2199   1.107       .  S
C2188      C2189   1.398       .  A
C2188      C2193   1.509       .  S
C2189      C2190   1.407       .  A
C2189      H2194   1.082       .  S
C2190      C2191   1.418       .  A
C2191      C2192   1.406       .  A
C2191      C2195   1.505       .  S
C2192      H2196   1.084       .  S
C2193      H2203   1.111       .  S
C2193      H2204   1.109       .  S
C2193      H2205   1.111       .  S
C2195      H2206   1.110       .  S
C2195      H2207   1.107       .  S
C2195      H2208   1.111       .  S
C2209      C2210   1.401       .  A
C2209      C2214   1.405       .  A
C2209      H2219   1.084       .  S
C2210      C2211   1.409       .  A
C2210      C2215   1.479       .  S
C2211      C2212   1.403       .  A
C2211      C2216   1.506       .  S
C2212      C2213   1.406       .  A
C2212      H2217   1.084       .  S
C2213      C2214   1.417       .  A
C2214      C2218   1.508       .  S
C2215      C2220   1.410       .  A
C2215      C2224   1.401       .  A
C2216      H2232   1.110       .  S
C2216      H2233   1.108       .  S
C2216      H2234   1.111       .  S
C2218      H2229   1.111       .  S
C2218      H2230   1.109       .  S
C2218      H2231   1.111       .  S
C2220      C2221   1.402       .  A
C2220      C2225   1.506       .  S
C2221      C2222   1.403       .  A
C2221      H2226   1.081       .  S
C2222      C2223   1.414       .  A
C2223      C2224   1.402       .  A
C2223      C2227   1.507       .  S
C2224      H2228   1.084       .  S
C2225      H2235   1.111       .  S
C2225      H2236   1.110       .  S
C2225      H2237   1.109       .  S
C2227      H2238   1.110       .  S
C2227      H2239   1.108       .  S
C2227      H2240   1.110       .  S
C2241      C2242   1.400       .  A
C2241      C2246   1.402       .  A
C2241      H2251   1.085       .  S
C2242      C2243   1.410       .  A
C2242      C2247   1.479       .  S
C2243      C2244   1.402       .  A
C2243      C2248   1.506       .  S
C2244      C2245   1.404       .  A
C2244      H2249   1.084       .  S
C2245      C2246   1.416       .  A
C2246      C2250   1.503       .  S
C2247      C2252   1.409       .  A
C2247      C2256   1.399       .  A
C2248      H2264   1.110       .  S
C2248      H2265   1.109       .  S
C2248      H2266   1.111       .  S
C2250      H2261   1.110       .  S
C2250      H2262   1.110       .  S
C2250      H2263   1.105       .  S
C2252      C2253   1.403       .  A
C2252      C2257   1.508       .  S
C2253      C2254   1.408       .  A
C2253      H2258   1.084       .  S
C2254      C2255   1.423       .  A
C2255      C2256   1.405       .  A
C2255      C2259   1.508       .  S
C2256      H2260   1.085       .  S
C2257      H2267   1.111       .  S
C2257      H2268   1.110       .  S
C2257      H2269   1.110       .  S
C2259      H2270   1.111       .  S
C2259      H2271   1.111       .  S
C2259      H2272   1.109       .  S
C2273      C2274   1.400       .  A
C2273      C2278   1.408       .  A
C2273      H2283   1.084       .  S
C2274      C2275   1.408       .  A
C2274      C2279   1.484       .  S
C2275      C2276   1.405       .  A
C2275      C2280   1.506       .  S
C2276      C2277   1.410       .  A
C2276      H2281   1.084       .  S
C2277      C2278   1.422       .  A
C2278      C2282   1.507       .  S
C2279      C2284   1.411       .  A
C2279      C2288   1.402       .  A
C2280      H2296   1.110       .  S
C2280      H2297   1.110       .  S
C2280      H2298   1.111       .  S
C2282      H2293   1.109       .  S
C2282      H2294   1.111       .  S
C2282      H2295   1.110       .  S
C2284      C2285   1.403       .  A
C2284      C2289   1.505       .  S
C2285      C2286   1.402       .  A
C2285      H2290   1.084       .  S
C2286      C2287   1.415       .  A
C2287      C2288   1.404       .  A
C2287      C2291   1.507       .  S
C2288      H2292   1.084       .  S
C2289      H2299   1.111       .  S
C2289      H2300   1.110       .  S
C2289      H2301   1.110       .  S
C2291      H2302   1.110       .  S
C2291      H2303   1.108       .  S
C2291      H2304   1.110       .  S
C2305      C2306   1.399       .  A
C2305      C2310   1.406       .  A
C2305      H2315   1.084       .  S
C2306      C2307   1.410       .  A
C2306      C2311   1.483       .  S
C2307      C2308   1.403       .  A
C2307      C2312   1.504       .  S
C2308      C2309   1.405       .  A
C2308      H2313   1.084       .  S
C2309      C2310   1.420       .  A
C2310      C2314   1.506       .  S
C2311      C2316   1.411       .  A
C2311      C2320   1.400       .  A
C2312      H2328   1.110       .  S
C2312      H2329   1.110       .  S
C2312      H2330   1.111       .  S
C2314      H2325   1.111       .  S
C2314      H2326   1.109       .  S
C2314      H2327   1.109   1_556  S
C2316      C2317   1.404       .  A
C2316      C2321   1.506       .  S
C2317      C2318   1.404       .  A
C2317      H2322   1.084       .  S
C2318      C2319   1.415       .  A
C2319      C2320   1.403       .  A
C2319      C2323   1.504       .  S
C2320      H2324   1.084       .  S
C2321      H2331   1.111       .  S
C2321      H2332   1.110       .  S
C2321      H2333   1.110       .  S
C2323      H2334   1.110       .  S
C2323      H2335   1.106       .  S
C2323      H2336   1.110       .  S
C2337      C2338   1.401       .  A
C2337      C2342   1.403       .  A
C2337      H2347   1.084       .  S
C2338      C2339   1.411       .  A
C2338      C2343   1.481       .  S
C2339      C2340   1.400       .  A
C2339      C2344   1.510       .  S
C2340      C2341   1.409       .  A
C2340      H2345   1.083       .  S
C2341      C2342   1.419       .  A
C2342      C2346   1.507       .  S
C2343      C2348   1.413       .  A
C2343      C2352   1.401       .  A
C2344      H2360   1.108       .  S
C2344      H2361   1.110       .  S
C2344      H2362   1.111       .  S
C2346      H2357   1.111       .  S
C2346      H2358   1.109       .  S
C2346      H2359   1.106       .  S
C2348      C2349   1.404       .  A
C2348      C2353   1.506       .  S
C2349      C2350   1.403       .  A
C2349      H2354   1.083       .  S
C2350      C2351   1.412       .  A
C2351      C2352   1.396       .  A
C2351      C2355   1.507       .  S
C2352      H2356   1.085       .  S
C2353      H2363   1.111       .  S
C2353      H2364   1.108       .  S
C2353      H2365   1.110       .  S
C2355      H2366   1.109       .  S
C2355      H2367   1.107       .  S
C2355      H2368   1.110       .  S
C2369      C2370   1.400       .  A
C2369      C2374   1.404       .  A
C2369      H2379   1.085       .  S
C2370      C2371   1.408       .  A
C2370      C2375   1.481       .  S
C2371      C2372   1.401       .  A
C2371      C2376   1.504       .  S
C2372      C2373   1.408       .  A
C2372      H2377   1.084       .  S
C2373      C2374   1.422       .  A
C2374      C2378   1.507       .  S
C2375      C2380   1.412       .  A
C2375      C2384   1.404       .  A
C2376      H2392   1.109       .  S
C2376      H2393   1.108       .  S
C2376      H2394   1.111       .  S
C2378      H2389   1.111       .  S
C2378      H2390   1.107       .  S
C2378      H2391   1.110       .  S
C2380      C2381   1.397       .  A
C2380      C2385   1.508       .  S
C2381      C2382   1.399       .  A
C2381      H2386   1.081       .  S
C2382      C2383   1.413       .  A
C2383      C2384   1.405       .  A
C2383      C2387   1.505       .  S
C2384      H2388   1.084       .  S
C2385      H2395   1.111       .  S
C2385      H2396   1.109       .  S
C2385      H2397   1.110       .  S
C2387      H2398   1.110       .  S
C2387      H2399   1.109       .  S
C2387      H2400   1.110       .  S
C2401      C2402   1.400       .  A
C2401      C2406   1.408       .  A
C2401      H2411   1.084       .  S
C2402      C2403   1.405       .  A
C2402      C2407   1.480       .  S
C2403      C2404   1.399       .  A
C2403      C2408   1.504       .  S
C2404      C2405   1.410       .  A
C2404      H2409   1.083       .  S
C2405      C2406   1.424       .  A
C2406      C2410   1.507       .  S
C2407      C2412   1.410       .  A
C2407      C2416   1.402       .  A
C2408      H2424   1.108       .  S
C2408      H2425   1.110       .  S
C2408      H2426   1.111       .  S
C2410      H2421   1.111       .  S
C2410      H2422   1.110       .  S
C2410      H2423   1.109       .  S
C2412      C2413   1.399       .  A
C2412      C2417   1.507       .  S
C2413      C2414   1.402       .  A
C2413      H2418   1.083       .  S
C2414      C2415   1.414       .  A
C2415      C2416   1.405       .  A
C2415      C2419   1.505       .  S
C2416      H2420   1.084       .  S
C2417      H2427   1.111       .  S
C2417      H2428   1.110       .  S
C2417      H2429   1.110       .  S
C2419      H2430   1.110       .  S
C2419      H2431   1.108       .  S
C2419      H2432   1.110       .  S
C2433      C2434   1.398       .  A
C2433      C2438   1.407       .  A
C2433      H2443   1.084       .  S
C2434      C2435   1.405       .  A
C2434      C2439   1.478       .  S
C2435      C2436   1.401       .  A
C2435      C2440   1.508       .  S
C2436      C2437   1.412       .  A
C2436      H2441   1.079       .  S
C2437      C2438   1.427       .  A
C2438      C2442   1.507       .  S
C2439      C2444   1.410       .  A
C2439      C2448   1.402       .  A
C2440      H2456   1.110       .  S
C2440      H2457   1.110       .  S
C2440      H2458   1.111       .  S
C2442      H2453   1.111       .  S
C2442      H2454   1.110       .  S
C2442      H2455   1.109       .  S
C2444      C2445   1.398       .  A
C2444      C2449   1.507       .  S
C2445      C2446   1.402       .  A
C2445      H2450   1.084       .  S
C2446      C2447   1.414       .  A
C2447      C2448   1.404       .  A
C2447      C2451   1.503       .  S
C2448      H2452   1.084       .  S
C2449      H2459   1.111       .  S
C2449      H2460   1.110       .  S
C2449      H2461   1.110       .  S
C2451      H2462   1.110       .  S
C2451      H2463   1.106       .  S
C2451      H2464   1.110       .  S
C2465      C2466   1.402       .  A
C2465      C2470   1.403       .  A
C2465      H2475   1.084       .  S
C2466      C2467   1.410       .  A
C2466      C2471   1.478       .  S
C2467      C2468   1.399       .  A
C2467      C2472   1.506       .  S
C2468      C2469   1.401       .  A
C2468      H2473   1.083       .  S
C2469      C2470   1.414       .  A
C2470      C2474   1.506       .  S
C2471      C2476   1.408       .  A
C2471      C2480   1.401       .  A
C2472      H2488   1.110       .  S
C2472      H2489   1.110       .  S
C2472      H2490   1.111       .  S
C2474      H2485   1.110       .  S
C2474      H2486   1.110       .  S
C2474      H2487   1.108       .  S
C2476      C2477   1.399       .  A
C2476      C2481   1.503       .  S
C2477      C2478   1.404       .  A
C2477      H2482   1.084       .  S
C2478      C2479   1.419       .  A
C2479      C2480   1.406       .  A
C2479      C2483   1.507       .  S
C2480      H2484   1.084       .  S
C2481      H2491   1.111       .  S
C2481      H2492   1.109       .  S
C2481      H2493   1.111       .  S
C2483      H2494   1.110       .  S
C2483      H2495   1.111   1_655  S
C2483      H2496   1.111       .  S
C2497      C2498   1.401       .  A
C2497      C2502   1.403       .  A
C2497      H2507   1.084       .  S
C2498      C2499   1.410       .  A
C2498      C2503   1.479       .  S
C2499      C2500   1.400       .  A
C2499      C2504   1.506       .  S
C2500      C2501   1.402       .  A
C2500      H2505   1.084       .  S
C2501      C2502   1.415       .  A
C2502      C2506   1.507       .  S
C2503      C2508   1.408       .  A
C2503      C2512   1.401       .  A
C2504      H2520   1.110       .  S
C2504      H2521   1.110       .  S
C2504      H2522   1.111       .  S
C2506      H2517   1.110       .  S
C2506      H2518   1.110       .  S
C2506      H2519   1.108       .  S
C2508      C2509   1.400       .  A
C2508      C2513   1.502       .  S
C2509      C2510   1.403       .  A
C2509      H2514   1.084       .  S
C2510      C2511   1.418       .  A
C2511      C2512   1.406       .  A
C2511      C2515   1.507       .  S
C2512      H2516   1.084       .  S
C2513      H2523   1.111       .  S
C2513      H2524   1.109       .  S
C2513      H2525   1.110       .  S
C2515      H2526   1.111       .  S
C2515      H2527   1.111       .  S
C2515      H2528   1.109       .  S
C2529      C2530   1.402       .  A
C2529      C2534   1.403       .  A
C2529      H2539   1.084       .  S
C2530      C2531   1.411       .  A
C2530      C2535   1.484       .  S
C2531      C2532   1.403       .  A
C2531      C2536   1.506       .  S
C2532      C2533   1.404       .  A
C2532      H2537   1.083       .  S
C2533      C2534   1.416       .  A
C2534      C2538   1.507       .  S
C2535      C2540   1.409       .  A
C2535      C2544   1.400       .  A
C2536      H2552   1.109       .  S
C2536      H2553   1.110       .  S
C2536      H2554   1.111       .  S
C2538      H2549   1.110       .  S
C2538      H2550   1.110       .  S
C2538      H2551   1.108       .  S
C2540      C2541   1.402       .  A
C2540      C2545   1.501       .  S
C2541      C2542   1.405       .  A
C2541      H2546   1.084       .  S
C2542      C2543   1.420       .  A
C2543      C2544   1.406       .  A
C2543      C2547   1.507       .  S
C2544      H2548   1.084       .  S
C2545      H2555   1.111       .  S
C2545      H2556   1.109       .  S
C2545      H2557   1.110       .  S
C2547      H2558   1.109       .  S
C2547      H2559   1.110       .  S
C2547      H2560   1.111       .  S
C2561      C2562   1.401       .  A
C2561      C2566   1.401       .  A
C2561      H2571   1.085       .  S
C2562      C2563   1.409       .  A
C2562      C2567   1.478       .  S
C2563      C2564   1.402       .  A
C2563      C2568   1.505       .  S
C2564      C2565   1.403       .  A
C2564      H2569   1.083       .  S
C2565      C2566   1.414       .  A
C2566      C2570   1.506       .  S
C2567      C2572   1.408       .  A
C2567      C2576   1.398       .  A
C2568      H2584   1.110       .  S
C2568      H2585   1.110       .  S
C2568      H2586   1.111       .  S
C2570      H2581   1.109       .  S
C2570      H2582   1.110       .  S
C2570      H2583   1.108       .  S
C2572      C2573   1.403       .  A
C2572      C2577   1.508       .  S
C2573      C2574   1.408       .  A
C2573      H2578   1.084       .  S
C2574      C2575   1.422       .  A
C2575      C2576   1.404       .  A
C2575      C2579   1.508       .  S
C2576      H2580   1.085       .  S
C2577      H2587   1.111       .  S
C2577      H2588   1.110       .  S
C2577      H2589   1.110       .  S
C2579      H2590   1.109   1_655  S
C2579      H2591   1.110       .  S
C2579      H2592   1.111       .  S
