geometry optimzed in LAMMPS
_audit_creation_date              2020-11-30 
_audit_creation_method            'lammps2cif' 
_symmetry_space_group_name_H-M    'P1' 
_symmetry_Int_Tables_number       1 
_symmetry_cell_setting            triclinic 
loop_ 
_symmetry_equiv_pos_as_xyz 
  x,y,z 
_cell_length_a                    52.25445191 
_cell_length_b                    52.42513638222235 
_cell_length_c                    37.032053017378665 
_cell_angle_alpha                 90.007574086985 
_cell_angle_beta                  90.23307227454305 
_cell_angle_gamma                 89.99354966501308 
loop_ 
_atom_site_label 
_atom_site_type_symbol 
_atom_site_fract_x 
_atom_site_fract_y 
_atom_site_fract_z 
_atom_site_charge 
N1          N  0.72951667  0.72861252  0.71629259    -0.36400
N2          N  0.77902861  0.72333201  0.75096977    -0.56900
N3          N  0.77165725  0.77255801  0.78631812    -0.36300
N4          N  0.72315415  0.77855961  0.74986579    -0.56900
C5          C  0.73975085  0.70915026  0.69710245     0.27200
C6          C  0.71030417  0.73859766  0.69614681     0.27200
C7          C  0.79669504  0.76829252  0.79348119     0.27200
C8          C  0.76708195  0.79760857  0.79255180     0.27200
C9          C  0.77644424  0.69944023  0.73752991     0.35800
C10         C  0.79853703  0.72258275  0.77508052     0.35900
C11         C  0.69970238  0.77576671  0.73502110     0.35800
C12         C  0.72177498  0.79893970  0.77207631     0.35900
C13         C  0.72677826  0.70670826  0.66451395    -0.21600
C14         C  0.70813872  0.72521397  0.66398732    -0.21600
C15         C  0.80813751  0.79087721  0.80455444    -0.21600
C16         C  0.78942463  0.80934215  0.80412809    -0.21600
C17         C  0.79435769  0.68338495  0.75323616    -0.22700
C18         C  0.80831415  0.69802466  0.77711192    -0.22700
C19         C  0.68329314  0.79444473  0.74783505    -0.22700
C20         C  0.69731501  0.80918867  0.77130419    -0.22700
C21         C  0.75950400  0.69263927  0.70914204    -0.18000
C22         C  0.69395318  0.75874373  0.70665615    -0.18000
C23         C  0.74289410  0.80965722  0.79048086    -0.18000
C24         C  0.80903332  0.74423772  0.79271933    -0.18000
H25         H  0.73024945  0.69290769  0.64335563     0.14900
H26         H  0.69450887  0.72841508  0.64237050     0.14900
H27         H  0.82786701  0.79370845  0.81261107     0.14900
H28         H  0.79196888  0.82909208  0.81183914     0.14900
H29         H  0.79731240  0.66333807  0.74765093     0.13200
H30         H  0.82420838  0.69147620  0.79349294     0.13200
H31         H  0.66354380  0.79762193  0.74012683     0.13200
H32         H  0.69046366  0.82592616  0.78538593     0.13200
H33         H  0.73357380  0.73306453  0.74308316     0.26400
H34         H  0.75793449  0.75857393  0.78174107     0.26400
N35         N  0.76945598  0.23855329  0.78700151    -0.36400
N36         N  0.77818212  0.28560872  0.74830842    -0.56900
N37         N  0.73116009  0.27715780  0.70802769    -0.36300
N38         N  0.72129289  0.23110703  0.74898632    -0.56900
C39         C  0.78830783  0.24900208  0.80730068     0.27200
C40         C  0.75886175  0.21965843  0.80671806     0.27200
C41         C  0.73654482  0.30150800  0.69876081     0.27200
C42         C  0.70638836  0.27283449  0.69922344     0.27200
C43         C  0.80110283  0.28330241  0.76496672     0.35800
C44         C  0.78113163  0.30337526  0.72229122     0.35900
C45         C  0.72361558  0.20794924  0.76468357     0.35800
C46         C  0.70272350  0.22888874  0.72367484     0.35900
C47         C  0.78970277  0.23661794  0.84033307    -0.21600
C48         C  0.77106685  0.21809206  0.83998635    -0.21600
C49         C  0.71490140  0.31281927  0.68396165    -0.21600
C50         C  0.69589819  0.29464313  0.68405387    -0.21600
C51         C  0.81870954  0.29979482  0.74968632    -0.22700
C52         C  0.80607415  0.31244524  0.72244776    -0.22700
C53         C  0.70622451  0.19102173  0.74959206    -0.22700
C54         C  0.69286919  0.20434705  0.72371152    -0.22700
C55         C  0.80568182  0.26780515  0.79541990    -0.18000
C56         C  0.73990544  0.20252950  0.79427068    -0.18000
C57         C  0.69376027  0.24909375  0.70179072    -0.18000
C58         C  0.76100303  0.31302672  0.70067183    -0.18000
H59         H  0.80309249  0.24019700  0.86212759     0.14900
H60         H  0.76723655  0.20469164  0.86153331     0.14900
H61         H  0.71314269  0.33199859  0.67342629     0.14900
H62         H  0.67665856  0.29708113  0.67367817     0.14900
H63         H  0.83847538  0.30260116  0.75758696     0.13200
H64         H  0.81419869  0.32696888  0.70517590     0.13200
H65         H  0.70321262  0.17125547  0.75684611     0.13200
H66         H  0.67759664  0.19686158  0.70696100     0.13200
H67         H  0.76630306  0.24173907  0.75964665     0.26400
H68         H  0.74446927  0.26337367  0.71543394     0.26400
N69         N  0.23536779  0.22851803  0.78361268    -0.36400
N70         N  0.23027229  0.27692782  0.74668734    -0.56900
N71         N  0.27645172  0.26522118  0.70515549    -0.36300
N72         N  0.28301367  0.21819405  0.74451046    -0.56900
C73         C  0.21675490  0.23944717  0.80380178     0.27200
C74         C  0.24442018  0.20823246  0.80228972     0.27200
C75         C  0.27240856  0.28973652  0.69550215     0.27200
C76         C  0.30070473  0.25926681  0.69555583     0.27200
C77         C  0.20758320  0.27676521  0.76420307     0.35800
C78         C  0.22881607  0.29564085  0.72163894     0.35900
C79         C  0.27980130  0.19535828  0.76071442     0.35800
C80         C  0.30203879  0.21519857  0.72021486     0.35900
C81         C  0.21377610  0.22575787  0.83552970    -0.21600
C82         C  0.23116128  0.20604643  0.83454932    -0.21600
C83         C  0.29421388  0.29941700  0.67923041    -0.21600
C84         C  0.31209824  0.28021334  0.67937017    -0.21600
C85         C  0.19179576  0.29573372  0.75060770    -0.22700
C86         C  0.20521096  0.30764252  0.72357171    -0.22700
C87         C  0.29704162  0.17780273  0.74682192    -0.22700
C88         C  0.31112022  0.19039100  0.72113230    -0.22700
C89         C  0.20141114  0.26055491  0.79348696    -0.18000
C90         C  0.26321339  0.19075268  0.79009311    -0.18000
C91         C  0.31225647  0.23497210  0.69874515    -0.18000
C92         C  0.24899897  0.30304116  0.69848504    -0.18000
H93         H  0.20028939  0.22942770  0.85702247     0.14900
H94         H  0.23356309  0.19160560  0.85516601     0.14900
H95         H  0.29686980  0.31829146  0.66800973     0.14900
H96         H  0.33118275  0.28142361  0.66824787     0.14900
H97         H  0.17265500  0.30055168  0.75934837     0.13200
H98         H  0.19844553  0.32349755  0.70743211     0.13200
H99         H  0.29954666  0.15809652  0.75479616     0.13200
H100        H  0.32646207  0.18230282  0.70525875     0.13200
H101        H  0.23965068  0.23279034  0.75697104     0.26400
H102        H  0.26242757  0.25255519  0.71355431     0.26400
N103        N  0.23146021  0.77063715  0.77569547    -0.36400
N104        N  0.27915483  0.77835494  0.73673339    -0.56900
N105        N  0.27060946  0.73066103  0.69827054    -0.36300
N106        N  0.22418972  0.72178925  0.73977721    -0.56900
C107        C  0.24174866  0.79019957  0.79471890     0.27200
C108        C  0.21268040  0.76037200  0.79617485     0.27200
C109        C  0.29482449  0.73598866  0.68781736     0.27200
C110        C  0.26592988  0.70598031  0.68975339     0.27200
C111        C  0.27739407  0.80135665  0.75310027     0.35800
C112        C  0.29796574  0.78035248  0.71191113     0.35900
C113        C  0.20147503  0.72336236  0.75700481     0.35800
C114        C  0.22221805  0.70218737  0.71620268     0.35900
C115        C  0.22922784  0.79248945  0.82751672    -0.21600
C116        C  0.21091858  0.77366961  0.82844617    -0.21600
C117        C  0.30556442  0.71450822  0.67210806    -0.21600
C118        C  0.28734520  0.69558839  0.67331613    -0.21600
C119        C  0.29534225  0.81797259  0.73889031    -0.22700
C120        C  0.30835569  0.80468027  0.71275746    -0.22700
C121        C  0.18503855  0.70455633  0.74449937    -0.22700
C122        C  0.19819777  0.69110652  0.71867792    -0.22700
C123        C  0.26115678  0.80693992  0.78253865    -0.18000
C124        C  0.19609404  0.74029364  0.78573733    -0.18000
C125        C  0.24237865  0.69302540  0.69435994    -0.18000
C126        C  0.30697718  0.76009721  0.69009145    -0.18000
H127        H  0.23278586  0.80640030  0.84854768     0.14900
H128        H  0.19765367  0.77030997  0.85030953     0.14900
H129        H  0.32449174  0.71271182  0.66061431     0.14900
H130        H  0.28955196  0.67642308  0.66290878     0.14900
H131        H  0.29891976  0.83751497  0.74687355     0.13200
H132        H  0.32390999  0.81199570  0.69656146     0.13200
H133        H  0.16573145  0.70068536  0.75344379     0.13200
H134        H  0.19102687  0.67481540  0.70380142     0.13200
H135        H  0.23500777  0.76646849  0.74875572     0.26400
H136        H  0.25713726  0.74385770  0.70684104     0.26400
N137        N  0.22865047  0.76936470  0.21721575    -0.36400
N138        N  0.22246530  0.72212771  0.25827979    -0.56900
N139        N  0.27291423  0.73020227  0.29118826    -0.36300
N140        N  0.27756341  0.77891644  0.25300670    -0.56900
C141        C  0.20482628  0.76274362  0.20618046     0.27200
C142        C  0.23341715  0.79315695  0.20462491     0.27200
C143        C  0.26496510  0.70991870  0.31083680     0.27200
C144        C  0.29430747  0.73946853  0.30725787     0.27200
C145        C  0.20160983  0.72001124  0.23665562     0.35800
C146        C  0.22419428  0.70017868  0.27738511     0.35900
C147        C  0.27739113  0.79931411  0.23067538     0.35800
C148        C  0.30078187  0.77855177  0.26916254     0.35900
C149        C  0.19447028  0.78252049  0.18591218    -0.21600
C150        C  0.21242302  0.80166669  0.18504024    -0.21600
C151        C  0.28197360  0.70582746  0.33913109    -0.21600
C152        C  0.30048595  0.72435920  0.33679847    -0.21600
C153        C  0.18974259  0.69674623  0.24262672    -0.22700
C154        C  0.20397103  0.68424710  0.26843016    -0.22700
C155        C  0.30047146  0.81224940  0.23319760    -0.22700
C156        C  0.31525215  0.79914607  0.25755017    -0.22700
C157        C  0.19256295  0.73895263  0.21229731    -0.18000
C158        C  0.25661910  0.80694934  0.20851911    -0.18000
C159        C  0.30873766  0.76090798  0.29585355    -0.18000
C160        C  0.24325449  0.69444973  0.30358126    -0.18000
H161        H  0.17597785  0.78309903  0.17268648     0.14900
H162        H  0.21033891  0.81968228  0.17106206     0.14900
H163        H  0.28117083  0.69101784  0.35945963     0.14900
H164        H  0.31659469  0.72649607  0.35500979     0.14900
H165        H  0.17253729  0.68954479  0.22984853     0.13200
H166        H  0.19989256  0.66552893  0.27930953     0.13200
H167        H  0.30607420  0.82945175  0.21913939     0.13200
H168        H  0.33439588  0.80440224  0.26596498     0.13200
H169        H  0.24163186  0.75748184  0.22926844     0.26400
H170        H  0.26560728  0.73592180  0.26676280     0.26400
N171        N  0.72957809  0.73136564  0.27783416    -0.36400
N172        N  0.77693545  0.72428650  0.23989733    -0.56900
N173        N  0.76857626  0.77286208  0.20262637    -0.36300
N174        N  0.72011767  0.77885340  0.23848261    -0.56900
C175        C  0.73458843  0.70677181  0.28640467     0.27200
C176        C  0.70482691  0.73583084  0.28604764     0.27200
C177        C  0.78803749  0.76288016  0.18325008     0.27200
C178        C  0.75768475  0.79144944  0.18227941     0.27200
C179        C  0.77921603  0.70495386  0.26387937     0.35800
C180        C  0.80009697  0.72716963  0.22439943     0.35900
C181        C  0.70216481  0.78069189  0.26443513     0.35800
C182        C  0.72245963  0.80236884  0.22390981     0.35900
C183        C  0.71274916  0.69548494  0.30031911    -0.21600
C184        C  0.69392931  0.71384615  0.30006537    -0.21600
C185        C  0.78968671  0.77537311  0.15032457    -0.21600
C186        C  0.77039435  0.79322210  0.14956882    -0.21600
C187        C  0.80389547  0.69531895  0.26339425    -0.22700
C188        C  0.81714292  0.70939382  0.23832498    -0.22700
C189        C  0.69296961  0.80546976  0.26634010    -0.22700
C190        C  0.70594052  0.81925748  0.24070403    -0.22700
C191        C  0.75879828  0.69486006  0.28431819    -0.18000
C192        C  0.69264044  0.75985050  0.28441346    -0.18000
C193        C  0.73782422  0.80800764  0.19365452    -0.18000
C194        C  0.80529202  0.74389167  0.19540687    -0.18000
H195        H  0.71069906  0.67615577  0.31016584     0.14900
H196        H  0.67457209  0.71144517  0.30979175     0.14900
H197        H  0.80344095  0.77207311  0.12906000     0.14900
H198        H  0.76644349  0.80625803  0.12758516     0.14900
H199        H  0.81142918  0.67954250  0.27900687     0.13200
H200        H  0.83690603  0.70652231  0.23068568     0.13200
H201        H  0.67821984  0.81275161  0.28400493     0.13200
H202        H  0.70318552  0.83926465  0.23462820     0.13200
H203        H  0.74298166  0.74523403  0.27132297     0.26400
H204        H  0.76501195  0.76924066  0.22974280     0.26400
N205        N  0.73059541  0.22015193  0.25175922    -0.36400
N206        N  0.77797705  0.22767418  0.21151561    -0.56900
N207        N  0.78849473  0.27288450  0.25424533    -0.36300
N208        N  0.74261142  0.26378496  0.29718362    -0.56900
C209        C  0.73232537  0.19764763  0.23403563     0.27200
C210        C  0.71321658  0.21711068  0.27842496     0.27200
C211        C  0.81096896  0.27041013  0.23641870     0.27200
C212        C  0.79245267  0.28927001  0.28198727     0.27200
C213        C  0.76708066  0.20919801  0.19111165     0.35800
C214        C  0.79749094  0.23738108  0.19190687     0.35900
C215        C  0.71852709  0.25914271  0.30875923     0.35800
C216        C  0.74929906  0.28687650  0.31050809     0.35900
C217        C  0.71582850  0.18011251  0.24965315    -0.21600
C218        C  0.70361979  0.19246248  0.27745921    -0.21600
C219        C  0.82939639  0.28545312  0.25301757    -0.21600
C220        C  0.81771607  0.29736912  0.28171318    -0.21600
C221        C  0.77982526  0.20706029  0.15848400    -0.22700
C222        C  0.79906702  0.22490667  0.15898199    -0.22700
C223        C  0.71001585  0.27916030  0.32997097    -0.22700
C224        C  0.72949521  0.29674603  0.33105773    -0.22700
C225        C  0.74688520  0.19310872  0.20248516    -0.18000
C226        C  0.70471490  0.23641117  0.30224314    -0.18000
C227        C  0.77343856  0.29867954  0.30574855    -0.18000
C228        C  0.81481077  0.25631912  0.20416747    -0.18000
H229        H  0.71252960  0.16057279  0.24141901     0.14900
H230        H  0.68920110  0.18425742  0.29485084     0.14900
H231        H  0.84912115  0.28792114  0.24493063     0.14900
H232        H  0.82670691  0.31080391  0.29997646     0.14900
H233        H  0.77579214  0.19390937  0.13666044     0.13200
H234        H  0.81274733  0.22819061  0.13761544     0.13200
H235        H  0.69174908  0.28083878  0.34344678     0.13200
H236        H  0.72914335  0.31469421  0.34548992     0.13200
H237        H  0.73844161  0.23736783  0.24343382     0.26400
H238        H  0.77080038  0.26636836  0.24534992     0.26400
O239        O  0.48261353  0.78776420  0.53538140    -0.81500
C240        C  0.50867674  0.87107849  0.44500399     0.97800
O241        O  0.48925861  0.86978617  0.46504798    -0.70700
O242        O  0.46569950  0.82746011  0.44943849    -0.74300
Al243      Al  0.47622984  0.84203638  0.49328698     1.49000
C244        C  0.46322329  0.80404160  0.44264916     0.93100
O245        O  0.52460138  0.78721597  0.45172113    -0.80500
O246        O  0.54504164  0.82396052  0.53854645    -0.74000
Al247      Al  0.50379525  0.78975860  0.49366805     1.90100
O248        O  0.55285055  0.81618775  0.46677623    -0.73100
O249        O  0.52384781  0.86773627  0.52506817    -0.73000
O250        O  0.52803306  0.85750983  0.45143124    -0.78600
O251        O  0.48393490  0.85825047  0.53720044    -0.76800
O252        O  0.50498100  0.82382228  0.49425881    -1.12900
O253        O  0.45630025  0.81877260  0.52105450    -0.72100
C254        C  0.46176708  0.79943966  0.53976522     0.98600
C255        C  0.54587822  0.79795735  0.44696021     0.95000
Al256      Al  0.53490141  0.84002072  0.49535308     1.55600
O257        O  0.47485036  0.78762963  0.46159471    -0.76800
C258        C  0.50430024  0.86987794  0.54473135     0.99100
C259        C  0.54592741  0.80028891  0.54436631     0.94000
O260        O  0.53261152  0.78505915  0.52559872    -0.82100
O261        O  0.71699981  0.98125474  0.03097647    -0.81500
C262        C  0.63660917  0.01191345  0.93716197     0.97800
O263        O  0.63760626  0.99113494  0.95441951    -0.70700
O264        O  0.68079555  0.96787369  0.93997926    -0.74300
Al265      Al  0.66443143  0.97651781  0.98370434     1.49000
C266        C  0.70459048  0.96508671  0.93585814     0.93100
O267        O  0.72005104  0.02670600  0.95027907    -0.80500
O268        O  0.68075247  0.04207379  0.03807999    -0.74000
Al269      Al  0.71648458  0.00402040  0.99049411     1.90100
O270        O  0.69127652  0.05435981  0.96808973    -0.73100
O271        O  0.63692407  0.02195989  0.01819756    -0.73000
O272        O  0.64987082  0.03078387  0.94680030    -0.78600
O273        O  0.64643914  0.98184524  0.02747618    -0.76800
O274        O  0.68238551  0.00508114  0.98885052    -1.12900
O275        O  0.68707229  0.95551584  0.01108510    -0.72100
C276        C  0.70553936  0.96006269  0.03218482     0.98600
C277        C  0.71023426  0.04869511  0.94869111     0.95000
Al278      Al  0.66603546  0.03475326  0.99245241     1.55600
O279        O  0.72006012  0.97633658  0.95678494    -0.76800
C280        C  0.63372914  0.00144642  0.03544237     0.99100
C281        C  0.70451496  0.04380518  0.04366905     0.94000
O282        O  0.72016283  0.03150775  0.02439483    -0.82100
O283        O  0.27946001  0.97597242  0.95360763    -0.81500
C284        C  0.36525615  0.99961005  0.04193948     0.97800
O285        O  0.36208215  0.97940218  0.02380710    -0.70700
O286        O  0.31880683  0.95713830  0.04023552    -0.74300
Al287      Al  0.33343579  0.96694537  0.99596906     1.49000
C288        C  0.29525058  0.95533672  0.04676457     0.93100
O289        O  0.28121957  0.01742154  0.03848286    -0.80500
O290        O  0.31770222  0.03506471  0.94954639    -0.74000
Al291      Al  0.28226034  0.99662460  0.99598152     1.90100
O292        O  0.31065393  0.04474544  0.02177556    -0.73100
O293        O  0.36102221  0.01277308  0.96316702    -0.73000
O294        O  0.35165082  0.01892212  0.03592912    -0.78600
O295        O  0.34984630  0.97353017  0.95142848    -0.76800
O296        O  0.31640342  0.99631192  0.99498738    -1.12900
O297        O  0.30878470  0.94786367  0.96858395    -0.72100
C298        C  0.29014816  0.95463924  0.94902509     0.98600
C299        C  0.29281613  0.03834994  0.04278937     0.95000
Al300      Al  0.33373083  0.02541893  0.99274210     1.55600
O301        O  0.27904594  0.96739428  0.02772553    -0.76800
C302        C  0.36316092  0.99283927  0.94420600     0.99100
C303        C  0.29402551  0.03763884  0.94456936     0.94000
O304        O  0.27825915  0.02587629  0.96442191    -0.82100
O305        O  0.52634283  0.21005654  0.53422010    -0.81500
C306        C  0.50408419  0.12227765  0.44955906     0.97800
O307        O  0.52286384  0.12458631  0.47092348    -0.70700
O308        O  0.54769758  0.16712513  0.45596031    -0.74300
Al309      Al  0.53413080  0.15339957  0.49934895     1.49000
C310        C  0.54884578  0.19027383  0.44660358     0.93100
O311        O  0.48469211  0.20661469  0.44943160    -0.80500
O312        O  0.46342037  0.17184186  0.53662008    -0.74000
Al313      Al  0.50543623  0.20546183  0.49239224     1.90100
O314        O  0.45756668  0.17679272  0.46370984    -0.73100
O315        O  0.48552970  0.12774094  0.52792386    -0.73000
O316        O  0.48430653  0.13567845  0.45368825    -0.78600
O317        O  0.52420925  0.13823271  0.54410791    -0.76800
O318        O  0.50505846  0.17131258  0.49566952    -1.12900
O319        O  0.55217290  0.17753443  0.52763338    -0.72100
C320        C  0.54670144  0.19845771  0.54223172     0.98600
C321        C  0.46374888  0.19530973  0.44398502     0.95000
Al322      Al  0.47537437  0.15449912  0.49544002     1.55600
O323        O  0.53458494  0.20676883  0.46128217    -0.76800
C324        C  0.50359619  0.12661385  0.55053380     0.99100
C325        C  0.46291182  0.19554082  0.54244106     0.94000
O326        O  0.47638938  0.21058082  0.52367993    -0.82100
C327        C  0.50251495  0.99738124  0.23751764    -0.02200
C328        C  0.49979781  0.99330126  0.74768741    -0.02200
O329        O  0.78127909  0.52653739  0.53194469    -0.81500
C330        C  0.86937227  0.50392652  0.44993485     0.97800
O331        O  0.86620195  0.52427327  0.46774286    -0.70700
O332        O  0.82210069  0.54293753  0.44686695    -0.74300
Al333      Al  0.83609129  0.53622670  0.49273504     1.49000
C334        C  0.79870749  0.54280838  0.43859507     0.93100
O335        O  0.78834356  0.47888853  0.45321734    -0.80500
O336        O  0.82429796  0.47059650  0.54591751    -0.74000
Al337      Al  0.78694015  0.50305240  0.49275395     1.90100
O338        O  0.81894375  0.45546904  0.47621535    -0.73100
O339        O  0.86631447  0.49447781  0.52957809    -0.73000
O340        O  0.85734646  0.48392850  0.45800076    -0.78600
O341        O  0.85150016  0.53280998  0.53917232    -0.76800
O342        O  0.82085262  0.50595402  0.49568879    -1.12900
O343        O  0.80976301  0.55501000  0.51608680    -0.72100
C344        C  0.79055524  0.54874988  0.53451454     0.98600
C345        C  0.80118008  0.45838867  0.45360493     0.95000
Al346      Al  0.84010382  0.47845558  0.50191446     1.55600
O347        O  0.78286428  0.52982115  0.45692399    -0.76800
C348        C  0.86600275  0.51466745  0.54804803     0.99100
C349        C  0.80073741  0.46631935  0.54997148     0.94000
O350        O  0.78453996  0.47583744  0.52817389    -0.82100
O351        O  0.02378834  0.71937588  0.03960128    -0.81500
C352        C  0.99637727  0.63829279  0.94629538     0.97800
O353        O  0.01677260  0.63927008  0.96467325    -0.70700
O354        O  0.04362271  0.68029137  0.95616585    -0.74300
Al355      Al  0.02987667  0.66443914  0.99733743     1.49000
C356        C  0.04622441  0.70351559  0.94895323     0.93100
O357        O  0.98354883  0.71991795  0.95258837    -0.80500
O358        O  0.96152142  0.68474387  0.04150401    -0.74000
Al359      Al  0.00345164  0.71772169  0.99633907     1.90100
O360        O  0.95376733  0.69309060  0.96919088    -0.73900
O361        O  0.98010653  0.63984424  0.02750140    -0.73000
O362        O  0.97692614  0.65094543  0.95492340    -0.78600
O363        O  0.02076409  0.64533723  0.03840583    -0.76800
O364        O  0.00155361  0.68352738  0.99747393    -1.12900
O365        O  0.04827953  0.68588904  0.02999772    -0.72100
C366        C  0.04298872  0.70577179  0.04777331     0.98600
C367        C  0.96169601  0.71008139  0.94791537     0.95000
Al368      Al  0.97086983  0.66846154  0.99826735     1.55600
O369        O  0.03356603  0.71999726  0.96623434    -0.76800
C370        C  0.00002161  0.63427906  0.04494606     0.99100
C371        C  0.95993921  0.70853628  0.04527902     0.94000
O372        O  0.97344487  0.72339584  0.02620247    -0.82100
O373        O  0.98545189  0.28718130  0.03629123    -0.81500
C374        C  0.99926115  0.37434440  0.94536981     0.97800
O375        O  0.98184468  0.37078646  0.96823732    -0.70700
O376        O  0.96106983  0.32612083  0.95358349    -0.74300
Al377      Al  0.97349130  0.34125036  0.99655146     1.49000
C378        C  0.96071025  0.30254220  0.94640367     0.93100
O379        O  0.02546869  0.28900406  0.94948111    -0.80500
O380        O  0.04721695  0.32907623  0.03029812    -0.74000
Al381      Al  0.00518977  0.29115657  0.99273016     1.90100
O382        O  0.04972347  0.32252780  0.95742294    -0.73100
O383        O  0.02064213  0.37093783  0.02116714    -0.73000
O384        O  0.01963474  0.36153151  0.94702425    -0.78600
O385        O  0.98345499  0.35755686  0.04064341    -0.76800
O386        O  0.00359028  0.32534184  0.99276542    -1.12900
O387        O  0.95671675  0.31623067  0.02473759    -0.72100
C388        C  0.96367784  0.29674858  0.04180769     0.98600
C389        C  0.04496721  0.30198367  0.94132810     0.95000
Al390      Al  0.03181047  0.34433065  0.98920143     1.55600
O391        O  0.97528228  0.28692609  0.96263903    -0.76800
C392        C  0.00295533  0.37164793  0.04429495     0.99100
C393        C  0.04868277  0.30578868  0.03869022     0.94000
O394        O  0.03498548  0.28932286  0.02280506    -0.82100
O395        O  0.21965478  0.51655300  0.45561375    -0.81500
C396        C  0.13297865  0.49754617  0.54504195     0.97800
O397        O  0.13733335  0.51678360  0.52576134    -0.70700
O398        O  0.18178592  0.53661595  0.54175284    -0.74300
Al399      Al  0.16602329  0.52702070  0.49781661     1.49000
C400        C  0.20551774  0.53718087  0.54797443     0.93100
O401        O  0.21780657  0.47408070  0.53939785    -0.80500
O402        O  0.17860480  0.45595210  0.45432113    -0.74000
Al403      Al  0.21619850  0.49538200  0.49754075     1.90100
O404        O  0.18557946  0.44899115  0.52651818    -0.73100
O405        O  0.13651233  0.48154611  0.46695402    -0.73000
O406        O  0.14549516  0.47727624  0.54020695    -0.78600
O407        O  0.14832445  0.52047651  0.45375212    -0.76800
O408        O  0.18191959  0.49688155  0.49733520    -1.12900
O409        O  0.19076514  0.54493292  0.47039263    -0.72100
C410        C  0.20985595  0.53841392  0.45204828     0.98600
C411        C  0.20535204  0.45381322  0.54476490     0.95000
Al412      Al  0.16320047  0.46844382  0.49700824     1.55600
O413        O  0.22090445  0.52403773  0.52934637    -0.76800
C414        C  0.13395244  0.50148336  0.44822978     0.99100
C415        C  0.20224969  0.45322509  0.44880698     0.94000
O416        O  0.21842628  0.46638399  0.46611273    -0.82100
C417        C  0.99924771  0.50274865  0.24729919    -0.02200
C418        C  0.00001362  0.50869084  0.74572066    -0.02200
N419        N  0.22739493  0.22240258  0.21528710    -0.36400
N420        N  0.27745436  0.21594285  0.25106737    -0.56900
N421        N  0.27027375  0.26395265  0.28861967    -0.36300
N422        N  0.22186428  0.27194032  0.24998760    -0.56900
C423        C  0.23646118  0.20188025  0.19717812     0.27200
C424        C  0.20737315  0.23186039  0.19607853     0.27200
C425        C  0.29478397  0.25894270  0.29836427     0.27200
C426        C  0.26509357  0.28823939  0.29848829     0.27200
C427        C  0.27545456  0.19286676  0.23494806     0.35800
C428        C  0.29804853  0.21478535  0.27337438     0.35900
C429        C  0.19908001  0.27110438  0.23257767     0.35800
C430        C  0.22089334  0.29222250  0.27247307     0.35900
C431        C  0.22145108  0.19774595  0.16672517    -0.21600
C432        C  0.20316676  0.21663547  0.16601545    -0.21600
C433        C  0.30519258  0.28025939  0.31502238    -0.21600
C434        C  0.28646250  0.29868137  0.31523410    -0.21600
C435        C  0.29502652  0.17705240  0.24686465    -0.22700
C436        C  0.30928657  0.19090188  0.27118550    -0.22700
C437        C  0.18371423  0.29115921  0.24366333    -0.22700
C438        C  0.19747971  0.30448031  0.26899069    -0.22700
C439        C  0.25751329  0.18635221  0.20761109    -0.18000
C440        C  0.19248399  0.25359532  0.20503145    -0.18000
C441        C  0.24121771  0.30079885  0.29476061    -0.18000
C442        C  0.30767945  0.23532649  0.29435185    -0.18000
H443        H  0.22352169  0.18274670  0.14686569     0.14900
H444        H  0.18850816  0.21893843  0.14553693     0.14900
H445        H  0.32423998  0.28227684  0.32625382     0.14900
H446        H  0.28837673  0.31757406  0.32669799     0.14900
H447        H  0.29883887  0.15762774  0.23856277     0.13200
H448        H  0.32617746  0.18423035  0.28532213     0.13200
H449        H  0.16464175  0.29584065  0.23426641     0.13200
H450        H  0.19109507  0.32150634  0.28282202     0.13200
H451        H  0.23327160  0.22827517  0.24075179     0.26400
H452        H  0.25692756  0.25078387  0.27954503     0.26400
C453        C  0.11335349  0.49921413  0.57371878    -0.11700
C454        C  0.09186945  0.51557954  0.57075595     0.03800
C455        C  0.07451840  0.51745222  0.59931845    -0.12300
C456        C  0.07810506  0.50341503  0.63111442     0.18600
C457        C  0.09926879  0.48690863  0.63398491    -0.09300
C458        C  0.11663780  0.48494086  0.60547394    -0.02300
H459        H  0.05797384  0.52977968  0.59661940     0.05100
C460        C  0.05888162  0.50520626  0.66025209     0.20600
H461        H  0.13315159  0.47269291  0.60857915     0.10300
C462        C  0.04260563  0.48460252  0.66609310    -0.15600
C463        C  0.02405548  0.48517767  0.69315717     0.03300
C464        C  0.02199176  0.50656876  0.71709111    -0.11000
C465        C  0.03770085  0.52790631  0.70886364    -0.01000
C466        C  0.05594886  0.52725617  0.68125773    -0.06100
H467        H  0.04426713  0.46784949  0.64909816     0.06300
H468        H  0.03547002  0.54580765  0.72285794     0.09700
Br469      Br  0.10569682  0.46732295  0.67682130    -0.05800
Br470      Br  0.08424795  0.53508415  0.52808102    -0.02800
Br471      Br  0.00360575  0.45488906  0.69542410     0.00100
Br472      Br  0.07625133  0.55715496  0.67284464    -0.04300
C473        C  0.11396801  0.50236196  0.41965528    -0.11700
C474        C  0.09226398  0.48614428  0.42014380     0.03800
C475        C  0.07466669  0.48682548  0.39164258    -0.12300
C476        C  0.07807213  0.50331887  0.36231547     0.18600
C477        C  0.09908913  0.52012015  0.36231660    -0.09300
C478        C  0.11667789  0.51962310  0.39088976    -0.02300
H479        H  0.05807232  0.47444126  0.39240329     0.05100
C480        C  0.05899255  0.50316639  0.33265811     0.20600
H481        H  0.13274181  0.53259790  0.39028494     0.10300
C482        C  0.04345115  0.52447852  0.32741069    -0.15600
C483        C  0.02480877  0.52505914  0.30018801     0.03300
C484        C  0.02137281  0.50380532  0.27627550    -0.11000
C485        C  0.03630214  0.48178578  0.28410269    -0.01000
C486        C  0.05513945  0.48158468  0.31097148    -0.06100
H487        H  0.04583882  0.54090853  0.34487563     0.06300
H488        H  0.03303688  0.46389791  0.27048489     0.09700
Br489      Br  0.10512305  0.54346493  0.32336295    -0.05800
Br490      Br  0.08426422  0.46359984  0.45947719    -0.02800
Br491      Br  0.00628852  0.55654363  0.29765980     0.00100
Br492      Br  0.07521725  0.45116546  0.31684932    -0.04300
C493        C  0.23706995  0.32437754  0.31606680    -0.11700
C494        C  0.22409242  0.32340028  0.34924605     0.03800
C495        C  0.21996933  0.34579874  0.36877369    -0.12300
C496        C  0.22855925  0.36933083  0.35558430     0.18600
C497        C  0.24167744  0.37034632  0.32249503    -0.09300
C498        C  0.24577986  0.34790055  0.30286623    -0.02300
H499        H  0.20983706  0.34491945  0.39421372     0.05100
C500        C  0.22328504  0.39250838  0.37684644     0.20600
H501        H  0.25576972  0.34873622  0.27731958     0.10300
C502        C  0.23892930  0.39824476  0.40651757    -0.15600
C503        C  0.23292507  0.41844144  0.42968464     0.03300
C504        C  0.21092296  0.43350480  0.42298211    -0.11000
C505        C  0.19553288  0.42785371  0.39279751    -0.01000
C506        C  0.20151912  0.40750446  0.36989337    -0.06100
H507        H  0.25537892  0.38633945  0.41241155     0.06300
H508        H  0.17842147  0.43893102  0.38748164     0.09700
Br509      Br  0.25432084  0.40189489  0.30343164    -0.05800
Br510      Br  0.21141961  0.29187891  0.36849093    -0.02800
Br511      Br  0.25396457  0.42233299  0.47200970     0.00100
Br512      Br  0.17870528  0.39985312  0.33064351    -0.04300
C513        C  0.00541641  0.38885625  0.07604913    -0.11700
C514        C  0.01779417  0.41283297  0.07418114     0.03800
C515        C  0.01852161  0.42875364  0.10456246    -0.12300
C516        C  0.00866362  0.42078535  0.13795302     0.18600
C517        C  0.99807212  0.39605067  0.14042359    -0.09300
C518        C  0.99595244  0.38068850  0.10955667    -0.02300
H519        H  0.02644719  0.44773758  0.10182613     0.05100
C520        C  0.00714587  0.43938941  0.16850203     0.20600
H521        H  0.98741508  0.36193370  0.11198446     0.10300
C522        C  0.98330636  0.44413650  0.18424241    -0.15600
C523        C  0.97984855  0.46271845  0.21103710     0.03300
C524        C  0.00099603  0.47820992  0.22269169    -0.11000
C525        C  0.02467681  0.47374863  0.20504061    -0.01000
C526        C  0.02814139  0.45417381  0.17983101    -0.06100
H527        H  0.96674665  0.43372526  0.17450566     0.06300
H528        H  0.04102388  0.48562390  0.21127285     0.09700
Br529      Br  0.98723660  0.38179502  0.18559438    -0.05800
Br530      Br  0.03356371  0.42559853  0.03107113    -0.02800
Br531      Br  0.94446386  0.46637895  0.22469752     0.00100
Br532      Br  0.06228844  0.44814116  0.16281197    -0.04300
C533        C  0.99585565  0.39382799  0.91685175    -0.11700
C534        C  0.98918555  0.41922852  0.92502536     0.03800
C535        C  0.98915853  0.43773778  0.89774529    -0.12300
C536        C  0.99299906  0.43097341  0.86144346     0.18600
C537        C  0.99662630  0.40494549  0.85293571    -0.09300
C538        C  0.99920656  0.38692364  0.88061853    -0.02300
H539        H  0.98629740  0.45752052  0.90506781     0.05100
C540        C  0.99513926  0.45115869  0.83319166     0.20600
H541        H  0.00313880  0.36727964  0.87372979     0.10300
C542        C  0.01671093  0.45128738  0.81094369    -0.15600
C543        C  0.01971308  0.46881364  0.78269309     0.03300
C544        C  0.00016176  0.48750737  0.77565916    -0.11000
C545        C  0.98000102  0.48868679  0.80127493    -0.01000
C546        C  0.97691420  0.47059849  0.82867337    -0.06100
H547        H  0.03169050  0.43739537  0.81587589     0.06300
H548        H  0.96510431  0.50286043  0.79832679     0.09700
Br549      Br  0.99653389  0.39276601  0.80398715    -0.05800
Br550      Br  0.98007509  0.42980589  0.97279674    -0.02800
Br551      Br  0.05256147  0.46509214  0.75962020     0.00100
Br552      Br  0.94595254  0.47219973  0.85635682    -0.04300
C553        C  0.16986394  0.25986167  0.18204939    -0.11700
C554        C  0.14544300  0.24957611  0.18886150     0.03800
C555        C  0.12461073  0.25645478  0.16689239    -0.12300
C556        C  0.12778210  0.27377197  0.13833142     0.18600
C557        C  0.15212555  0.28428416  0.13191247    -0.09300
C558        C  0.17291559  0.27724855  0.15361382    -0.02300
H559        H  0.10589844  0.24842415  0.17219034     0.05100
C560        C  0.10574935  0.28076234  0.11512184     0.20600
H561        H  0.19157228  0.28544116  0.14841006     0.10300
C562        C  0.09411991  0.30466048  0.11950470    -0.15600
C563        C  0.07513117  0.31308365  0.09549872     0.03300
C564        C  0.06737223  0.29730941  0.06645218    -0.11000
C565        C  0.07843087  0.27295832  0.06307322    -0.01000
C566        C  0.09756407  0.26473102  0.08691367    -0.06100
H567        H  0.10027567  0.31704894  0.14129114     0.06300
H568        H  0.07286166  0.26057789  0.04096846     0.09700
Br569      Br  0.15784757  0.30810128  0.09344068    -0.05800
Br570      Br  0.13972700  0.22670628  0.22838430    -0.02800
Br571      Br  0.06033131  0.34600605  0.10456196     0.00100
Br572      Br  0.11314168  0.23213277  0.07860151    -0.04300
C573        C  0.99899815  0.61483523  0.07360535    -0.11700
C574        C  0.01606917  0.59404457  0.07407109     0.03800
C575        C  0.01558311  0.57671198  0.10276337    -0.12300
C576        C  0.99806610  0.57958072  0.13105949     0.18600
C577        C  0.98067019  0.60013251  0.13031225    -0.09300
C578        C  0.98117103  0.61750201  0.10158591    -0.02300
H579        H  0.02874156  0.56073580  0.10283446     0.05100
C580        C  0.99834757  0.56081985  0.16090750     0.20600
H581        H  0.96800595  0.63347792  0.10150283     0.10300
C582        C  0.01931925  0.55998820  0.18440684    -0.15600
C583        C  0.02129031  0.54143085  0.21159295     0.03300
C584        C  0.00025487  0.52450099  0.21840976    -0.11000
C585        C  0.98034259  0.52461850  0.19220897    -0.01000
C586        C  0.97929637  0.54222824  0.16401600    -0.06100
H587        H  0.03504382  0.57312232  0.18017038     0.06300
H588        H  0.96483001  0.51114574  0.19410234     0.09700
Br589      Br  0.95653272  0.60571063  0.16841246    -0.05800
Br590      Br  0.03921368  0.58759020  0.03503108    -0.02800
Br591      Br  0.05542990  0.53879045  0.23109243     0.00100
Br592      Br  0.95196526  0.53933698  0.12948344    -0.04300
C593        C  0.99527090  0.62207334  0.91425751    -0.11700
C594        C  0.99087179  0.63245163  0.87968458     0.03800
C595        C  0.99120294  0.61650646  0.84942249    -0.12300
C596        C  0.99510325  0.59019933  0.85344221     0.18600
C597        C  0.99817923  0.57977641  0.88829115    -0.09300
C598        C  0.99877680  0.59580576  0.91830791    -0.02300
H599        H  0.98878021  0.62464132  0.82273513     0.05100
C600        C  0.99728592  0.57371702  0.82136265     0.20600
H601        H  0.00159843  0.58771901  0.94496325     0.10300
C602        C  0.02039678  0.56118226  0.81538528    -0.15600
C603        C  0.02228413  0.54123191  0.79058667     0.03300
C604        C  0.00085481  0.53415836  0.76859645    -0.11000
C605        C  0.97804205  0.54872436  0.77369229    -0.01000
C606        C  0.97616508  0.56795904  0.79960198    -0.06100
H607        H  0.03676123  0.56579483  0.83226161     0.06300
H608        H  0.96035771  0.54396034  0.76017035     0.09700
Br609      Br  0.00073118  0.54365984  0.89631945    -0.05800
Br610      Br  0.98576337  0.66834152  0.87233847    -0.02800
Br611      Br  0.05474831  0.52434805  0.79186593     0.00100
Br612      Br  0.94338312  0.58363063  0.80712628    -0.04300
C613        C  0.88345092  0.51650576  0.57938332    -0.11700
C614        C  0.87741115  0.53014769  0.61118595     0.03800
C615        C  0.89430880  0.52944902  0.64070278    -0.12300
C616        C  0.91704867  0.51530581  0.63893707     0.18600
C617        C  0.92306571  0.50187478  0.60731781    -0.09300
C618        C  0.90636610  0.50253375  0.57800064    -0.02300
H619        H  0.88968100  0.53982611  0.66512015     0.05100
C620        C  0.93510715  0.51513729  0.66948568     0.20600
H621        H  0.91138368  0.49197483  0.55388694     0.10300
C622        C  0.93497361  0.49468641  0.69358189    -0.15600
C623        C  0.95460028  0.49117999  0.71909622     0.03300
C624        C  0.97544161  0.50914054  0.72091631    -0.11000
C625        C  0.97436193  0.53000327  0.69632121    -0.01000
C626        C  0.95470077  0.53310837  0.67136178    -0.06100
H627        H  0.91989583  0.48056950  0.69124313     0.06300
H628        H  0.98920296  0.54439156  0.69657946     0.09700
Br629      Br  0.95409313  0.48250064  0.60288951    -0.05800
Br630      Br  0.84596069  0.54866510  0.61689856    -0.02800
Br631      Br  0.95044347  0.45964513  0.74524543     0.00100
Br632      Br  0.95601696  0.56167848  0.63900705    -0.04300
C633        C  0.88714582  0.50351145  0.41931998    -0.11700
C634        C  0.87912500  0.49464063  0.38517334     0.03800
C635        C  0.89637842  0.49416141  0.35647136    -0.12300
C636        C  0.92170425  0.50218913  0.36133464     0.18600
C637        C  0.92969686  0.51137296  0.39531852    -0.09300
C638        C  0.91234627  0.51213686  0.42400903    -0.02300
H639        H  0.89003030  0.48753199  0.33021023     0.05100
C640        C  0.93929841  0.50145728  0.33030856     0.20600
H641        H  0.91861593  0.51911766  0.45012856     0.10300
C642        C  0.93907104  0.52152889  0.30568252    -0.15600
C643        C  0.95622669  0.52255345  0.27669477     0.03300
C644        C  0.97500928  0.50265693  0.27216743    -0.11000
C645        C  0.97342016  0.48171856  0.29653175    -0.01000
C646        C  0.95595756  0.48099621  0.32491428    -0.06100
H647        H  0.92558073  0.53698266  0.30967938     0.06300
H648        H  0.98643329  0.46577389  0.29385390     0.09700
Br649      Br  0.96400408  0.52313262  0.40353927    -0.05800
Br650      Br  0.84444487  0.48436682  0.37580030    -0.02800
Br651      Br  0.95154090  0.55325463  0.24880868     0.00100
Br652      Br  0.95559052  0.45172249  0.35598209    -0.04300
C653        C  0.50068370  0.11135224  0.58440984    -0.11700
C654        C  0.47639696  0.10442326  0.59851418     0.03800
C655        C  0.47478663  0.08914887  0.62947895    -0.12300
C656        C  0.49682719  0.08048165  0.64719065     0.18600
C657        C  0.52093296  0.08798185  0.63419947    -0.09300
C658        C  0.52273206  0.10346151  0.60339677    -0.02300
H659        H  0.45616992  0.08303704  0.63893608     0.05100
C660        C  0.49455621  0.05920943  0.67330049     0.20600
H661        H  0.54154151  0.10853895  0.59354172     0.10300
C662        C  0.49332677  0.03474606  0.65912113    -0.15600
C663        C  0.49207273  0.01328902  0.68122074     0.03300
C664        C  0.49494546  0.01575960  0.71989285    -0.11000
C665        C  0.49280902  0.04098825  0.73363181    -0.01000
C666        C  0.49286511  0.06245853  0.71082270    -0.06100
H667        H  0.49245934  0.03243682  0.63002342     0.06300
H668        H  0.49266411  0.04408328  0.76254837     0.09700
Br669      Br  0.55185991  0.07588613  0.65646509    -0.05800
Br670      Br  0.44433583  0.11461527  0.57743179    -0.02800
Br671      Br  0.48108768  0.98402975  0.65350948     0.00100
Br672      Br  0.49107249  0.09577205  0.73182075    -0.04300
C673        C  0.50278918  0.01933576  0.26651788    -0.11700
C674        C  0.48045005  0.03189985  0.28059481     0.03800
C675        C  0.48264810  0.04913499  0.30944027    -0.12300
C676        C  0.50611460  0.05420223  0.32620882     0.18600
C677        C  0.52791596  0.04129256  0.31401029    -0.09300
C678        C  0.52594596  0.02380365  0.28562753    -0.02300
H679        H  0.46556575  0.05830334  0.31971382     0.05100
C680        C  0.50695420  0.07205203  0.35748478     0.20600
H681        H  0.54311467  0.01373274  0.27831367     0.10300
C682        C  0.51454755  0.06310154  0.39170002    -0.15600
C683        C  0.51434928  0.07920615  0.42198046     0.03300
C684        C  0.50547540  0.10450514  0.41858183    -0.11000
C685        C  0.49792848  0.11341743  0.38442318    -0.01000
C686        C  0.49903168  0.09764090  0.35398798    -0.06100
H687        H  0.52044513  0.04341932  0.39492310     0.06300
H688        H  0.49167044  0.13300338  0.38124377     0.09700
Br689      Br  0.56117071  0.04733791  0.33445670    -0.05800
Br690      Br  0.44534452  0.02635046  0.26627203    -0.02800
Br691      Br  0.52518845  0.06534086  0.46749608     0.00100
Br692      Br  0.49074751  0.11235349  0.30795377    -0.04300
C693        C  0.44551463  0.20314361  0.41485510    -0.11700
C694        C  0.44208206  0.22869091  0.40337274     0.03800
C695        C  0.42107491  0.23511968  0.38114114    -0.12300
C696        C  0.40367467  0.21638376  0.36940174     0.18600
C697        C  0.40872832  0.19069018  0.37772633    -0.09300
C698        C  0.42914682  0.18434395  0.40051085    -0.02300
H699        H  0.41775389  0.25491377  0.37416840     0.05100
C700        C  0.37932136  0.22363227  0.35100643     0.20600
H701        H  0.43186235  0.16449870  0.40775398     0.10300
C702        C  0.37938828  0.23196423  0.31494552    -0.15600
C703        C  0.35627712  0.23623555  0.29629459     0.03300
C704        C  0.33266794  0.23193332  0.31358822    -0.11000
C705        C  0.33264753  0.22465095  0.35000735    -0.01000
C706        C  0.35564362  0.22072344  0.36877473    -0.06100
H707        H  0.39740117  0.23463625  0.30108369     0.06300
H708        H  0.31462837  0.22190518  0.36383776     0.09700
Br709      Br  0.38778915  0.16356826  0.35913862    -0.05800
Br710      Br  0.46420592  0.25582578  0.41879433    -0.02800
Br711      Br  0.35760651  0.24805457  0.24735586     0.00100
Br712      Br  0.35381321  0.21156088  0.41888782    -0.04300
C713        C  0.38496179  0.00077649  0.07051189    -0.11700
C714        C  0.40897532  0.98884847  0.06657348     0.03800
C715        C  0.42667554  0.98956464  0.09495220    -0.12300
C716        C  0.42100692  0.00222663  0.12729377     0.18600
C717        C  0.39753473  0.01517268  0.13066476    -0.09300
C718        C  0.37971054  0.01432973  0.10239120    -0.02300
H719        H  0.44501524  0.98019035  0.09182114     0.05100
C720        C  0.43989974  0.00144849  0.15708700     0.20600
H721        H  0.36147554  0.02389204  0.10561326     0.10300
C722        C  0.45475611  0.02292299  0.16446599    -0.15600
C723        C  0.47425994  0.02227255  0.19050225     0.03300
C724        C  0.47899215  0.99961211  0.21125539    -0.11000
C725        C  0.46308034  0.97834675  0.20359303    -0.01000
C726        C  0.44426710  0.97900700  0.17667595    -0.06100
H727        H  0.45148145  0.04026230  0.14919223     0.06300
H728        H  0.46580587  0.96028892  0.21690558     0.09700
Br729      Br  0.38872862  0.03360156  0.17361470    -0.05800
Br730      Br  0.41936529  0.97282665  0.02235117    -0.02800
Br731      Br  0.49221488  0.05403870  0.19624335     0.00100
Br732      Br  0.42562575  0.94825783  0.16648188    -0.04300
C733        C  0.38144570  0.99264973  0.91351058    -0.11700
C734        C  0.38892849  0.97007010  0.89522458     0.03800
C735        C  0.40663656  0.97143035  0.86699705    -0.12300
C736        C  0.41727386  0.99478847  0.85661969     0.18600
C737        C  0.40979263  0.01723041  0.87433575    -0.09300
C738        C  0.39201048  0.01606578  0.90231509    -0.02300
H739        H  0.41268423  0.95406364  0.85364180     0.05100
C740        C  0.43765980  0.99516924  0.82923171     0.20600
H741        H  0.38660401  0.03368554  0.91551988     0.10300
C742        C  0.43146991  0.99559786  0.79258664    -0.15600
C743        C  0.45058523  0.99536915  0.76601868     0.03300
C744        C  0.47717144  0.99435074  0.77586992    -0.11000
C745        C  0.48238185  0.99659981  0.81358384    -0.01000
C746        C  0.46330779  0.99568926  0.83965247    -0.06100
H747        H  0.41149804  0.99579274  0.78458235     0.06300
H748        H  0.50126689  0.99926149  0.82437201     0.09700
Br749      Br  0.42388483  0.04981472  0.86167585    -0.05800
Br750      Br  0.37711428  0.93653629  0.90787319    -0.02800
Br751      Br  0.43737165  0.99521521  0.71776450     0.00100
Br752      Br  0.47332762  0.99473263  0.88963059    -0.04300
C753        C  0.28645381  0.05583821  0.07283885    -0.11700
C754        C  0.26131819  0.06424603  0.07971729     0.03800
C755        C  0.25710790  0.08393284  0.10469270    -0.12300
C756        C  0.27757453  0.09509927  0.12367183     0.18600
C757        C  0.30234781  0.08491377  0.11932724    -0.09300
C758        C  0.30666946  0.06593116  0.09349359    -0.02300
H759        H  0.23789004  0.09123263  0.10829555     0.05100
C760        C  0.27292068  0.11834120  0.14573385     0.20600
H761        H  0.32601419  0.05912448  0.08928394     0.10300
C762        C  0.25615527  0.11731763  0.17530466    -0.15600
C763        C  0.25067630  0.13930689  0.19547835     0.03300
C764        C  0.26234959  0.16265309  0.18653358    -0.11000
C765        C  0.27878899  0.16377813  0.15679218    -0.01000
C766        C  0.28376805  0.14204408  0.13606600    -0.06100
H767        H  0.24715741  0.09942277  0.18249990     0.06300
H768        H  0.28734776  0.18181857  0.14923979     0.09700
Br769      Br  0.33082535  0.09607257  0.14822179    -0.05800
Br770      Br  0.23236899  0.05100375  0.05396454    -0.02800
Br771      Br  0.22684565  0.13693283  0.23456033     0.00100
Br772      Br  0.30388920  0.14628623  0.09320563    -0.04300
C773        C  0.52527619  0.99743082  0.21005685    -0.11700
C774        C  0.52914370  0.97678074  0.18515887     0.03800
C775        C  0.54805234  0.97821405  0.15866523    -0.12300
C776        C  0.56391182  0.99943298  0.15577588     0.18600
C777        C  0.56100095  0.01965235  0.18010459    -0.09300
C778        C  0.54183574  0.01874552  0.20636948    -0.02300
H779        H  0.55049392  0.96247862  0.13999536     0.05100
C780        C  0.58240399  0.00048785  0.12577787     0.20600
H781        H  0.53975896  0.03549642  0.22293133     0.10300
C782        C  0.57546235  0.01331940  0.09404240    -0.15600
C783        C  0.59167698  0.01347156  0.06409251     0.03300
C784        C  0.61541553  0.00066948  0.06571313    -0.11000
C785        C  0.62219726  0.98756944  0.09746606    -0.01000
C786        C  0.60589197  0.98742004  0.12738558    -0.06100
H787        H  0.55709885  0.02286165  0.09237268     0.06300
H788        H  0.64041189  0.97775154  0.09921037     0.09700
Br789      Br  0.58281087  0.04903886  0.17822439    -0.05800
Br790      Br  0.51163446  0.94452426  0.18612647    -0.02800
Br791      Br  0.57950995  0.02985104  0.02096414     0.00100
Br792      Br  0.61642890  0.96940858  0.17000985    -0.04300
C793        C  0.52627526  0.99659748  0.76838537    -0.11700
C794        C  0.53587574  0.97749532  0.79277006     0.03800
C795        C  0.55615713  0.98294828  0.81615615    -0.12300
C796        C  0.56820977  0.00661268  0.81582966     0.18600
C797        C  0.56190951  0.02409129  0.78859995    -0.09300
C798        C  0.54185074  0.01866770  0.76446791    -0.02300
H799        H  0.56180174  0.96895274  0.83622099     0.05100
C800        C  0.58623429  0.01252547  0.84558219     0.20600
H801        H  0.53860887  0.03238648  0.74334195     0.10300
C802        C  0.61254286  0.00870919  0.84073323    -0.15600
C803        C  0.62935166  0.00951502  0.87029786     0.03300
C804        C  0.61983080  0.01386925  0.90528305    -0.11000
C805        C  0.59369099  0.01863940  0.90994271    -0.01000
C806        C  0.57693067  0.01818072  0.88036461    -0.06100
H807        H  0.61984993  0.00410830  0.81418390     0.06300
H808        H  0.58622739  0.02218640  0.93671329     0.09700
Br809      Br  0.57939863  0.05608537  0.78448448    -0.05800
Br810      Br  0.52099353  0.94450101  0.80073241    -0.02800
Br811      Br  0.66493296  0.00318759  0.86205228     0.00100
Br812      Br  0.54130314  0.02460162  0.88870978    -0.04300
C813        C  0.50576749  0.88513019  0.57778882    -0.11700
C814        C  0.48656260  0.90273376  0.58691040     0.03800
C815        C  0.48815646  0.91586638  0.61957306    -0.12300
C816        C  0.50848372  0.91148658  0.64368365     0.18600
C817        C  0.52717841  0.89319298  0.63516301    -0.09300
C818        C  0.52598137  0.88053661  0.60200363    -0.02300
H819        H  0.47360479  0.92983687  0.62599875     0.05100
C820        C  0.51012004  0.92753001  0.67628069     0.20600
H821        H  0.54045144  0.86650368  0.59553430     0.10300
C822        C  0.49032497  0.92640552  0.70151122    -0.15600
C823        C  0.48680120  0.94570072  0.72721733     0.03300
C824        C  0.50309271  0.96773541  0.72670392    -0.11000
C825        C  0.52499087  0.96644028  0.70408178    -0.01000
C826        C  0.52839679  0.94699956  0.67895674    -0.06100
H827        H  0.47683272  0.91072409  0.70018944     0.06300
H828        H  0.53842120  0.98216513  0.70334960     0.09700
Br829      Br  0.55375126  0.88403329  0.66859816    -0.05800
Br830      Br  0.45851112  0.91044634  0.55512151    -0.02800
Br831      Br  0.46045653  0.93777939  0.76158648     0.00100
Br832      Br  0.55561493  0.95089175  0.64467545    -0.04300
C833        C  0.50815993  0.88802417  0.41319963    -0.11700
C834        C  0.49850074  0.91305081  0.41530022     0.03800
C835        C  0.49637039  0.92786585  0.38404311    -0.12300
C836        C  0.50341422  0.91811433  0.35018340     0.18600
C837        C  0.51350027  0.89316219  0.34816953    -0.09300
C838        C  0.51590564  0.87842454  0.37957363    -0.02300
H839        H  0.48956781  0.94732364  0.38626998     0.05100
C840        C  0.50230575  0.93524916  0.31823285     0.20600
H841        H  0.52319626  0.85912213  0.37757406     0.10300
C842        C  0.52503920  0.94138596  0.30063498    -0.15600
C843        C  0.52601108  0.95988540  0.27341459     0.03300
C844        C  0.50311468  0.97302498  0.26220069    -0.11000
C845        C  0.48048073  0.96668512  0.28120725    -0.01000
C846        C  0.47974291  0.94781780  0.30783541    -0.06100
H847        H  0.54266815  0.93242781  0.30952616     0.06300
H848        H  0.46290180  0.97672011  0.27573586     0.09700
Br849      Br  0.52339484  0.87796432  0.30315910    -0.05800
Br850      Br  0.48954687  0.92850385  0.46049404    -0.02800
Br851      Br  0.56059566  0.96610099  0.25758104     0.00100
Br852      Br  0.44724392  0.94010124  0.32925785    -0.04300
C853        C  0.77899377  0.32252195  0.32632911    -0.11700
C854        C  0.77835895  0.34651077  0.30918509     0.03800
C855        C  0.78248386  0.36878600  0.32926435    -0.12300
C856        C  0.78757460  0.36761176  0.36642592     0.18600
C857        C  0.78884884  0.34358084  0.38348393    -0.09300
C858        C  0.78440548  0.32128279  0.36346310    -0.02300
H859        H  0.78162437  0.38713490  0.31586275     0.05100
C860        C  0.79106411  0.39169425  0.38692384     0.20600
H861        H  0.78505185  0.30293016  0.37687501     0.10300
C862        C  0.76952852  0.40596259  0.39727103    -0.15600
C863        C  0.77213101  0.42842007  0.41774191     0.03300
C864        C  0.79670374  0.43704606  0.42787765    -0.11000
C865        C  0.81819686  0.42299778  0.41642973    -0.01000
C866        C  0.81557340  0.40060870  0.39623949    -0.06100
H867        H  0.75056916  0.39921360  0.39017931     0.06300
H868        H  0.83727972  0.42924285  0.42384293     0.09700
Br869      Br  0.79626200  0.34038759  0.43406082    -0.05800
Br870      Br  0.77128859  0.34973437  0.25852543    -0.02800
Br871      Br  0.74154272  0.44507793  0.43366162     0.00100
Br872      Br  0.84601813  0.38263942  0.38248404    -0.04300
C873        C  0.56848454  0.19873826  0.42025443    -0.11700
C874        C  0.57948872  0.18206773  0.39460572     0.03800
C875        C  0.60068405  0.19002141  0.37442330    -0.12300
C876        C  0.61101904  0.21450398  0.37889962     0.18600
C877        C  0.59907184  0.23171085  0.40253172    -0.09300
C878        C  0.57801955  0.22380343  0.42289606    -0.02300
H879        H  0.60944686  0.17688454  0.35556895     0.05100
C880        C  0.63497708  0.22126024  0.36002059     0.20600
H881        H  0.56970917  0.23710619  0.44187809     0.10300
C882        C  0.63393675  0.23089685  0.32472390    -0.15600
C883        C  0.65647530  0.23650849  0.30594092     0.03300
C884        C  0.68046425  0.23205729  0.32227494    -0.11000
C885        C  0.68146907  0.22288820  0.35782688    -0.01000
C886        C  0.65895083  0.21766093  0.37680169    -0.06100
H887        H  0.61556918  0.23405409  0.31181038     0.06300
H888        H  0.69983195  0.21964616  0.37070998     0.09700
Br889      Br  0.61143842  0.26590128  0.40861514    -0.05800
Br890      Br  0.56605894  0.14864028  0.38487341    -0.02800
Br891      Br  0.65376830  0.25066165  0.25834165     0.00100
Br892      Br  0.66172296  0.20561287  0.42557562    -0.04300
C893        C  0.83840218  0.26123545  0.18242315    -0.11700
C894        C  0.84155309  0.28405198  0.16276512     0.03800
C895        C  0.86324438  0.28750860  0.14110203    -0.12300
C896        C  0.88209017  0.26846496  0.13840640     0.18600
C897        C  0.87911218  0.24581545  0.15841586    -0.09300
C898        C  0.85745600  0.24236961  0.18019571    -0.02300
H899        H  0.86523588  0.30499268  0.12577450     0.05100
C900        C  0.90407436  0.27233182  0.11349055     0.20600
H901        H  0.85521514  0.22469271  0.19499152     0.10300
C902        C  0.92878083  0.27695767  0.12733766    -0.15600
C903        C  0.94920501  0.28315293  0.10423778     0.03300
C904        C  0.94493219  0.28509061  0.06675707    -0.11000
C905        C  0.92053003  0.27933058  0.05295382    -0.01000
C906        C  0.90031794  0.27278290  0.07581391    -0.06100
H907        H  0.93197883  0.27656302  0.15624915     0.06300
H908        H  0.91698448  0.28064035  0.02415873     0.09700
Br909      Br  0.90346093  0.21857068  0.15528024    -0.05800
Br910      Br  0.81618307  0.31052663  0.16343909    -0.02800
Br911      Br  0.98192649  0.29089503  0.12510612     0.00100
Br912      Br  0.86781715  0.26480774  0.05427673    -0.04300
C913        C  0.71396866  0.06189865  0.07120248    -0.11700
C914        C  0.73551506  0.07754079  0.06476635     0.03800
C915        C  0.74144052  0.09728015  0.08871762    -0.12300
C916        C  0.72663720  0.10156507  0.11959378     0.18600
C917        C  0.70593391  0.08519307  0.12701734    -0.09300
C918        C  0.69961237  0.06572415  0.10272215    -0.02300
H919        H  0.75721491  0.10994948  0.08256296     0.05100
C920        C  0.73186104  0.12443354  0.14189406     0.20600
H921        H  0.68315620  0.05377488  0.10818315     0.10300
C922        C  0.71327258  0.14371393  0.14367375    -0.15600
C923        C  0.71779055  0.16613439  0.16311178     0.03300
C924        C  0.74137961  0.16963732  0.18109624    -0.11000
C925        C  0.76001510  0.15038312  0.17918133    -0.01000
C926        C  0.75548089  0.12796293  0.15968408    -0.06100
H927        H  0.69523664  0.14140438  0.12950510     0.06300
H928        H  0.77814443  0.15281276  0.19305638     0.09700
Br929      Br  0.68581085  0.08866051  0.16997295    -0.05800
Br930      Br  0.75632187  0.07478678  0.02226991    -0.02800
Br931      Br  0.69132726  0.19153279  0.16359075     0.00100
Br932      Br  0.78182873  0.10246860  0.15899618    -0.04300
C933        C  0.66913530  0.76353041  0.30588842    -0.11700
C934        C  0.64485816  0.76515718  0.28941351     0.03800
C935        C  0.62320225  0.76921916  0.31067620    -0.12300
C936        C  0.62553396  0.77177732  0.34819776     0.18600
C937        C  0.64978313  0.76998835  0.36466518    -0.09300
C938        C  0.67137098  0.76574350  0.34347170    -0.02300
H939        H  0.60457387  0.77081816  0.29792760     0.05100
C940        C  0.60283503  0.77806322  0.36970087     0.20600
H941        H  0.69003807  0.76458375  0.35621748     0.10300
C942        C  0.58902331  0.75855488  0.38668620    -0.15600
C943        C  0.56905407  0.76439104  0.41042239     0.03300
C944        C  0.56326744  0.79013147  0.41784947    -0.11000
C945        C  0.57640155  0.80947768  0.39934761    -0.01000
C946        C  0.59587773  0.80361867  0.37518409    -0.06100
H947        H  0.59427525  0.73881571  0.38222145     0.06300
H948        H  0.57185407  0.82934081  0.40434046     0.09700
Br949      Br  0.65437022  0.77418185  0.41576144    -0.05800
Br950      Br  0.64050463  0.76202966  0.23816014    -0.02800
Br951      Br  0.55177454  0.73664390  0.43362645     0.00100
Br952      Br  0.61317775  0.83113121  0.35134129    -0.04300
C953        C  0.78968034  0.56024872  0.40961835    -0.11700
C954        C  0.80617647  0.56917689  0.38209802     0.03800
C955        C  0.79868937  0.58962058  0.36020371    -0.12300
C956        C  0.77509343  0.60171541  0.36522903     0.18600
C957        C  0.75792644  0.59186746  0.39091059    -0.09300
C958        C  0.76521078  0.57120978  0.41264950    -0.02300
H959        H  0.81182964  0.59683395  0.34007416     0.05100
C960        C  0.76971594  0.62550763  0.34499328     0.20600
H961        H  0.75223361  0.56476109  0.43348031     0.10300
C962        C  0.76482713  0.62436409  0.30773254    -0.15600
C963        C  0.76128590  0.64672741  0.28757578     0.03300
C964        C  0.76276670  0.67068650  0.30467255    -0.11000
C965        C  0.76765584  0.67182491  0.34190473    -0.01000
C966        C  0.77132535  0.64951151  0.36202997    -0.06100
H967        H  0.76388482  0.60602738  0.29430233     0.06300
H968        H  0.76891732  0.69018001  0.35523754     0.09700
Br969      Br  0.72481322  0.60671812  0.39826762    -0.05800
Br970      Br  0.83942301  0.55494726  0.37312887    -0.02800
Br971      Br  0.75425284  0.64379399  0.23690189     0.00100
Br972      Br  0.77974985  0.65278254  0.41232428    -0.04300
C973        C  0.73316989  0.83207802  0.17285967    -0.11700
C974        C  0.70950616  0.83718074  0.15573203     0.03800
C975        C  0.70650251  0.85929431  0.13495820    -0.12300
C976        C  0.72705579  0.87605963  0.12918183     0.18600
C977        C  0.75065659  0.87104036  0.14629772    -0.09300
C978        C  0.75336949  0.84952017  0.16841969    -0.02300
H979        H  0.68824663  0.86291936  0.12196028     0.05100
C980        C  0.72365800  0.89781319  0.10381358     0.20600
H981        H  0.77170558  0.84579795  0.18112417     0.10300
C982        C  0.72633823  0.92307082  0.11614250    -0.15600
C983        C  0.72164576  0.94387013  0.09308329     0.03300
C984        C  0.71369912  0.93947494  0.05713310    -0.11000
C985        C  0.71169847  0.91422012  0.04477316    -0.01000
C986        C  0.71672011  0.89357839  0.06749609    -0.06100
H987        H  0.73153562  0.92661088  0.14404309     0.06300
H988        H  0.70602899  0.91045478  0.01709436     0.09700
Br989      Br  0.78036436  0.89165771  0.13787840    -0.05800
Br990      Br  0.68127710  0.81373578  0.15707248    -0.02800
Br991      Br  0.72459670  0.97758191  0.11287202     0.00100
Br992      Br  0.71420405  0.85997926  0.04709281    -0.04300
C993        C  0.82947336  0.74034055  0.17521136    -0.11700
C994        C  0.83060439  0.72380381  0.14536002     0.03800
C995        C  0.85356173  0.72086429  0.12661838    -0.12300
C996        C  0.87560425  0.73419219  0.13726844     0.18600
C997        C  0.87447849  0.75084882  0.16705537    -0.09300
C998        C  0.85145080  0.75381323  0.18583627    -0.02300
H999        H  0.85425871  0.70811640  0.10361041     0.05100
C1000       C  0.89932600  0.73045712  0.11635842     0.20600
H1001       H  0.85062793  0.76667535  0.20870106     0.10300
C1002       C  0.90147132  0.74202573  0.08238208    -0.15600
C1003       C  0.92182259  0.73605568  0.05941219     0.03300
C1004       C  0.94077300  0.71858690  0.07073768    -0.11000
C1005       C  0.93883652  0.70743154  0.10510189    -0.01000
C1006       C  0.91825742  0.71312719  0.12779361    -0.06100
H1007       H  0.88652367  0.75475175  0.07297482     0.06300
H1008       H  0.95282393  0.69339967  0.11368941     0.09700
Br1009     Br  0.90370157  0.77017005  0.18243127    -0.05800
Br1010     Br  0.80110652  0.70524878  0.12906386    -0.02800
Br1011     Br  0.92060094  0.74936546  0.01115015     0.00100
Br1012     Br  0.91551907  0.69509869  0.17268718    -0.04300
C1013       C  0.24029939  0.67073478  0.32532359    -0.11700
C1014       C  0.22602812  0.67052402  0.35750202     0.03800
C1015       C  0.22409342  0.64802788  0.37774633    -0.12300
C1016       C  0.23625104  0.62554229  0.36634110     0.18600
C1017       C  0.25068141  0.62585309  0.33431067    -0.09300
C1018       C  0.25269557  0.64836586  0.31415672    -0.02300
H1019       H  0.21281181  0.64796861  0.40222787     0.05100
C1020       C  0.23236070  0.60163501  0.38699176     0.20600
H1021       H  0.26395780  0.64845639  0.28966318     0.10300
C1022       C  0.21622942  0.58275870  0.37260810    -0.15600
C1023       C  0.21028918  0.56086215  0.39251534     0.03300
C1024       C  0.22062481  0.55749357  0.42728786    -0.11000
C1025       C  0.23742487  0.57593962  0.44127142    -0.01000
C1026       C  0.24338577  0.59789284  0.42138534    -0.06100
H1027       H  0.20758092  0.58547755  0.34624754     0.06300
H1028       H  0.24502420  0.57379904  0.46837491     0.09700
Br1029     Br  0.26826261  0.59605220  0.31750586    -0.05800
Br1030     Br  0.20899581  0.70056557  0.37461785    -0.02800
Br1031     Br  0.18687705  0.53668777  0.37211545     0.00100
Br1032     Br  0.26610578  0.62250312  0.44253367    -0.04300
C1033       C  0.33320947  0.76630234  0.31472591    -0.11700
C1034       C  0.33346602  0.77934612  0.34791976     0.03800
C1035       C  0.35675364  0.78506212  0.36455907    -0.12300
C1036       C  0.37996063  0.77846716  0.34812687     0.18600
C1037       C  0.37977399  0.76582823  0.31463180    -0.09300
C1038       C  0.35641560  0.75962337  0.29827180    -0.02300
H1039       H  0.35680681  0.79487165  0.39032044     0.05100
C1040       C  0.40399086  0.78468917  0.36702931     0.20600
H1041       H  0.35629599  0.75007844  0.27232595     0.10300
C1042       C  0.41815983  0.76506420  0.38319096    -0.15600
C1043       C  0.43873629  0.77054522  0.40621085     0.03300
C1044       C  0.44509713  0.79630350  0.41370103    -0.11000
C1045       C  0.43192680  0.81573025  0.39501324    -0.01000
C1046       C  0.41152409  0.81012674  0.37206040    -0.06100
H1047       H  0.41255096  0.74539051  0.37891984     0.06300
H1048       H  0.43674516  0.83560198  0.39927185     0.09700
Br1049     Br  0.41087417  0.75801094  0.28963337    -0.05800
Br1050     Br  0.30249364  0.79017215  0.37097157    -0.02800
Br1051     Br  0.45633924  0.74176111  0.42672387     0.00100
Br1052     Br  0.39401380  0.83793808  0.34902604    -0.04300
C1053       C  0.16866648  0.73370774  0.19143016    -0.11700
C1054       C  0.16937118  0.71978240  0.15892279     0.03800
C1055       C  0.14700430  0.71659456  0.13844085    -0.12300
C1056       C  0.12378207  0.72746713  0.14955783     0.18600
C1057       C  0.12302140  0.74125535  0.18218388    -0.09300
C1058       C  0.14534403  0.74418151  0.20293739    -0.02300
H1059       H  0.14778761  0.70589486  0.11343671     0.05100
C1060       C  0.10065889  0.72378594  0.12675256     0.20600
H1061       H  0.14466518  0.75510194  0.22774876     0.10300
C1062       C  0.08760236  0.70049614  0.12841924    -0.15600
C1063       C  0.06751346  0.69509177  0.10449069     0.03300
C1064       C  0.06033030  0.71302804  0.07785076    -0.11000
C1065       C  0.07245836  0.73693686  0.07751619    -0.01000
C1066       C  0.09254456  0.74236752  0.10167930    -0.06100
H1067       H  0.09341033  0.68624764  0.14799950     0.06300
H1068       H  0.06722306  0.75090541  0.05723477     0.09700
Br1069     Br  0.09200119  0.75655530  0.19911748    -0.05800
Br1070     Br  0.20065883  0.70548401  0.14106409    -0.02800
Br1071     Br  0.05023298  0.66306735  0.10993595     0.00100
Br1072     Br  0.10942192  0.77474423  0.09820212    -0.04300
C1073       C  0.28665085  0.93739994  0.07517386    -0.11700
C1074       C  0.30181774  0.93198742  0.10598309     0.03800
C1075       C  0.29496606  0.91200367  0.12910141    -0.12300
C1076       C  0.27312964  0.89726079  0.12221917     0.18600
C1077       C  0.25720945  0.90352120  0.09281973    -0.09300
C1078       C  0.26397610  0.92348458  0.06963196    -0.02300
H1079       H  0.30711568  0.90747307  0.15199852     0.05100
C1080       C  0.26842127  0.87419989  0.14416027     0.20600
H1081       H  0.25207157  0.92732615  0.04623633     0.10300
C1082       C  0.25577020  0.87619176  0.17739676    -0.15600
C1083       C  0.25144258  0.85446086  0.19858477     0.03300
C1084       C  0.25993336  0.83042817  0.18652253    -0.11000
C1085       C  0.27253476  0.82850692  0.15331202    -0.01000
C1086       C  0.27683776  0.85014062  0.13218053    -0.06100
H1087       H  0.24927485  0.89464509  0.18680939     0.06300
H1088       H  0.27923764  0.81009849  0.14399352     0.09700
Br1089     Br  0.22666103  0.88451792  0.08260926    -0.05800
Br1090     Br  0.33185665  0.95134080  0.11831769    -0.02800
Br1091     Br  0.23399972  0.85829708  0.24370702     0.00100
Br1092     Br  0.29463008  0.84602836  0.08734653    -0.04300
C1093       C  0.33084275  0.76410824  0.66898193    -0.11700
C1094       C  0.32994294  0.76935187  0.63172947     0.03800
C1095       C  0.35264909  0.77345271  0.61265971    -0.12300
C1096       C  0.37659887  0.77172931  0.62992127     0.18600
C1097       C  0.37745679  0.76606541  0.66718081    -0.09300
C1098       C  0.35467845  0.76248172  0.68639417    -0.02300
H1099       H  0.35161310  0.77807427  0.58417901     0.05100
C1100       C  0.40022150  0.77680823  0.60876698     0.20600
H1101       H  0.35553266  0.75815770  0.71497872     0.10300
C1102       C  0.41602587  0.79742849  0.61845233    -0.15600
C1103       C  0.43719998  0.80408970  0.59737849     0.03300
C1104       C  0.44273625  0.79021366  0.56584736    -0.11000
C1105       C  0.42754222  0.76915759  0.55667172    -0.01000
C1106       C  0.40644245  0.76235374  0.57782122    -0.06100
H1107       H  0.41151585  0.80877758  0.64203176     0.06300
H1108       H  0.43158720  0.75849985  0.53227322     0.09700
Br1109     Br  0.40919062  0.76192752  0.69275285    -0.05800
Br1110     Br  0.29808572  0.77121998  0.60595228    -0.02800
Br1111     Br  0.45803565  0.83230406  0.61247812     0.00100
Br1112     Br  0.38677305  0.73319317  0.56317545    -0.04300
C1113       C  0.21544394  0.55533594  0.57499580    -0.11700
C1114       C  0.20247195  0.56006043  0.60762521     0.03800
C1115       C  0.20916258  0.58124352  0.62867385    -0.12300
C1116       C  0.22875664  0.59779012  0.61770644     0.18600
C1117       C  0.24329232  0.59162720  0.58694584    -0.09300
C1118       C  0.23652271  0.57056371  0.56581486    -0.02300
H1119       H  0.19839574  0.58537830  0.65292015     0.05100
C1120       C  0.23248781  0.62218805  0.63715583     0.20600
H1121       H  0.24690367  0.56693229  0.54106925     0.10300
C1122       C  0.24176340  0.62206336  0.67277315    -0.15600
C1123       C  0.24491602  0.64493776  0.69185928     0.03300
C1124       C  0.23878849  0.66833474  0.67525903    -0.11000
C1125       C  0.22923045  0.66843949  0.63985918    -0.01000
C1126       C  0.22579358  0.64561275  0.62090992    -0.06100
H1127       H  0.24658113  0.60414731  0.68569312     0.06300
H1128       H  0.22417864  0.68635279  0.62710545     0.09700
Br1129     Br  0.27197626  0.61188174  0.57209844    -0.05800
Br1130     Br  0.17572214  0.53803696  0.62460925    -0.02800
Br1131     Br  0.25767654  0.64353327  0.74042483     0.00100
Br1132     Br  0.21073101  0.64731533  0.57357638    -0.04300
C1133       C  0.26528829  0.83108411  0.80298783    -0.11700
C1134       C  0.28412090  0.83275777  0.83016581     0.03800
C1135       C  0.28637570  0.85501947  0.85080447    -0.12300
C1136       C  0.26985690  0.87578078  0.84514338     0.18600
C1137       C  0.25123042  0.87426988  0.81763170    -0.09300
C1138       C  0.24907824  0.85201775  0.79676467    -0.02300
H1139       H  0.30060313  0.85588397  0.87213581     0.05100
C1140       C  0.27140632  0.89784876  0.87015980     0.20600
H1141       H  0.23433459  0.85078067  0.77619084     0.10300
C1142       C  0.28373672  0.92041732  0.85944929    -0.15600
C1143       C  0.28845614  0.94002114  0.88447654     0.03300
C1144       C  0.28113057  0.93695893  0.92078120    -0.11000
C1145       C  0.26783481  0.91492529  0.93103873    -0.01000
C1146       C  0.26263866  0.89561908  0.90593968    -0.06100
H1147       H  0.29047106  0.92239712  0.83196638     0.06300
H1148       H  0.26204399  0.91245374  0.95888639     0.09700
Br1149     Br  0.22747156  0.90149063  0.80915400    -0.05800
Br1150     Br  0.30605732  0.80450210  0.84142589    -0.02800
Br1151     Br  0.30640230  0.96994700  0.86878062     0.00100
Br1152     Br  0.24384981  0.86623872  0.92168336    -0.04300
C1153       C  0.17261550  0.73595719  0.80760878    -0.11700
C1154       C  0.15119337  0.75218948  0.80482833     0.03800
C1155       C  0.12982154  0.74817103  0.82692179    -0.12300
C1156       C  0.12952255  0.72818133  0.85217246     0.18600
C1157       C  0.15102015  0.71198271  0.85486941    -0.09300
C1158       C  0.17225373  0.71591253  0.83264082    -0.02300
H1159       H  0.11335659  0.76060162  0.82432293     0.05100
C1160       C  0.10647114  0.72374735  0.87471016     0.20600
H1161       H  0.18874976  0.70351760  0.83524640     0.10300
C1162       C  0.09232227  0.70137619  0.86940411    -0.15600
C1163       C  0.07215049  0.69487695  0.89233808     0.03300
C1164       C  0.06529488  0.71123921  0.92119244    -0.11000
C1165       C  0.07860884  0.73442766  0.92516952    -0.01000
C1166       C  0.09916497  0.74063614  0.90243665    -0.06100
H1167       H  0.09754764  0.68845193  0.84781193     0.06300
H1168       H  0.07387393  0.74720414  0.94714330     0.09700
Br1169     Br  0.15272964  0.68483884  0.88956038    -0.05800
Br1170     Br  0.15034553  0.77984725  0.77094872    -0.02800
Br1171     Br  0.05513276  0.66318959  0.88234358     0.00100
Br1172     Br  0.11795803  0.77135221  0.91199230    -0.04300
C1173       C  0.24576429  0.32629706  0.67614743    -0.11700
C1174       C  0.24067517  0.32450199  0.63886027     0.03800
C1175       C  0.23731258  0.34669544  0.61849018    -0.12300
C1176       C  0.23939607  0.37077618  0.63470919     0.18600
C1177       C  0.24546234  0.37258125  0.67166420    -0.09300
C1178       C  0.24850956  0.35038037  0.69218267    -0.02300
H1179       H  0.23243990  0.34519257  0.59010115     0.05100
C1180       C  0.23167146  0.39345379  0.61383357     0.20600
H1181       H  0.25287212  0.35185450  0.72072950     0.10300
C1182       C  0.20559153  0.39913157  0.61172785    -0.15600
C1183       C  0.19676491  0.41935679  0.59066468     0.03300
C1184       C  0.21429560  0.43460189  0.57124012    -0.11000
C1185       C  0.24062737  0.42941222  0.57445652    -0.01000
C1186       C  0.24936210  0.40879824  0.59530323    -0.06100
H1187       H  0.19194287  0.38743226  0.62619417     0.06300
H1188       H  0.25433755  0.44065694  0.55943830     0.09700
Br1189     Br  0.24909536  0.40496516  0.69515918    -0.05800
Br1190     Br  0.23745030  0.29214878  0.61500256    -0.02800
Br1191     Br  0.16048561  0.42500486  0.59022580     0.00100
Br1192     Br  0.28529653  0.40147472  0.59654297    -0.04300
C1193       C  0.33650888  0.23031391  0.67881084    -0.11700
C1194       C  0.33640589  0.22635456  0.64121137     0.03800
C1195       C  0.35947558  0.22276155  0.62291060    -0.12300
C1196       C  0.38294755  0.22322530  0.64144149     0.18600
C1197       C  0.38314827  0.22781529  0.67895274    -0.09300
C1198       C  0.35998304  0.23109347  0.69739328    -0.02300
H1199       H  0.35910686  0.21935956  0.59404997     0.05100
C1200       C  0.40663357  0.21815086  0.62074406     0.20600
H1201       H  0.36026189  0.23466565  0.72620404     0.10300
C1202       C  0.41445233  0.23564952  0.59429944    -0.15600
C1203       C  0.43384906  0.22952281  0.56968569     0.03300
C1204       C  0.44564086  0.20524363  0.57115334    -0.11000
C1205       C  0.43881264  0.18850086  0.59920900    -0.01000
C1206       C  0.41944359  0.19462992  0.62362377    -0.06100
H1207       H  0.40461770  0.25376578  0.59182292     0.06300
H1208       H  0.44791514  0.17001184  0.60136644     0.09700
Br1209     Br  0.41452809  0.23075695  0.70568484    -0.05800
Br1210     Br  0.30517736  0.22559043  0.61383005    -0.02800
Br1211     Br  0.44141500  0.25433582  0.53310197     0.00100
Br1212     Br  0.40959195  0.16913977  0.65808579    -0.04300
C1213       C  0.06387673  0.29283413  0.91454858    -0.11700
C1214       C  0.07150398  0.30829627  0.88530913     0.03800
C1215       C  0.09335312  0.30203601  0.86525067    -0.12300
C1216       C  0.10804653  0.28045623  0.87385187     0.18600
C1217       C  0.10007361  0.26461618  0.90247883    -0.09300
C1218       C  0.07807098  0.27076338  0.92234383    -0.02300
H1219       H  0.09912103  0.31426217  0.84314725     0.05100
C1220       C  0.13188064  0.27516416  0.85322536     0.20600
H1221       H  0.07291691  0.25908398  0.94533170     0.10300
C1222       C  0.15374987  0.29021497  0.85925338    -0.15600
C1223       C  0.17647914  0.28570272  0.84015980     0.03300
C1224       C  0.17761153  0.26587290  0.81449337    -0.11000
C1225       C  0.15573492  0.25091020  0.80839123    -0.01000
C1226       C  0.13297702  0.25553195  0.82727951    -0.06100
H1227       H  0.15315382  0.30545335  0.87899305     0.06300
H1228       H  0.15630459  0.23575619  0.78852338     0.09700
Br1229     Br  0.11973214  0.23548804  0.91713533    -0.05800
Br1230     Br  0.05264804  0.33816721  0.87173722    -0.02800
Br1231     Br  0.20565901  0.30678589  0.85017335     0.00100
Br1232     Br  0.10352966  0.23521314  0.81587651    -0.04300
C1233       C  0.28551976  0.05575753  0.91624503    -0.11700
C1234       C  0.26278780  0.07025904  0.91906985     0.03800
C1235       C  0.25835086  0.09044588  0.89511132    -0.12300
C1236       C  0.27627455  0.09667913  0.86853282     0.18600
C1237       C  0.29831453  0.08165922  0.86456709    -0.09300
C1238       C  0.30262169  0.06123948  0.88798570    -0.02300
H1239       H  0.24143386  0.10216964  0.89835607     0.05100
C1240       C  0.27292344  0.12039281  0.84773630     0.20600
H1241       H  0.32011556  0.05033480  0.88509640     0.10300
C1242       C  0.28534436  0.14254439  0.85975014    -0.15600
C1243       C  0.28230628  0.16557595  0.84128652     0.03300
C1244       C  0.26657174  0.16661467  0.81039856    -0.11000
C1245       C  0.25417707  0.14443917  0.79831009    -0.01000
C1246       C  0.25728271  0.12135586  0.81678726    -0.06100
H1247       H  0.29736479  0.14188919  0.88364476     0.06300
H1248       H  0.24217506  0.14512029  0.77440943     0.09700
Br1249     Br  0.32378909  0.08934965  0.82902420    -0.05800
Br1250     Br  0.23836064  0.06569590  0.95699809    -0.02800
Br1251     Br  0.29974767  0.19520602  0.85922720     0.00100
Br1252     Br  0.24020821  0.09155471  0.79881941    -0.04300
C1253       C  0.67073392  0.24474177  0.67898469    -0.11700
C1254       C  0.64580740  0.24699267  0.69291522     0.03800
C1255       C  0.62469121  0.24109840  0.67104103    -0.12300
C1256       C  0.62809856  0.23289144  0.63529991     0.18600
C1257       C  0.65304333  0.23118063  0.62119468    -0.09300
C1258       C  0.67410034  0.23716968  0.64301645    -0.02300
H1259       H  0.60557256  0.24253919  0.68206271     0.05100
C1260       C  0.60559414  0.22514052  0.61355055     0.20600
H1261       H  0.69324355  0.23533495  0.63218472     0.10300
C1262       C  0.59729104  0.24061935  0.58488895    -0.15600
C1263       C  0.57716985  0.23282021  0.56232582     0.03300
C1264       C  0.56503964  0.20920903  0.56841344    -0.11000
C1265       C  0.57311781  0.19395456  0.59741817    -0.01000
C1266       C  0.59309306  0.20181007  0.62007230    -0.06100
H1267       H  0.60698239  0.25847442  0.57947408     0.06300
H1268       H  0.56423741  0.17555001  0.60191624     0.09700
Br1269     Br  0.65937229  0.21943004  0.57297945    -0.05800
Br1270     Br  0.63986268  0.25783292  0.74159449    -0.02800
Br1271     Br  0.56867761  0.25385573  0.52164143     0.00100
Br1272     Br  0.60369910  0.17933766  0.65819333    -0.04300
C1273       C  0.76530664  0.33714467  0.68056264    -0.11700
C1274       C  0.76512168  0.33781272  0.64250503     0.03800
C1275       C  0.76928721  0.36088386  0.62458626    -0.12300
C1276       C  0.77405822  0.38332067  0.64406351     0.18600
C1277       C  0.77441229  0.38268195  0.68199923    -0.09300
C1278       C  0.76981329  0.35972109  0.69998536    -0.02300
H1279       H  0.76949997  0.36122733  0.59533106     0.05100
C1280       C  0.78072066  0.40662942  0.62406555     0.20600
H1281       H  0.77007730  0.35935862  0.72923642     0.10300
C1282       C  0.76133605  0.42248202  0.61052169    -0.15600
C1283       C  0.76721728  0.44320006  0.58807385     0.03300
C1284       C  0.79298901  0.44791204  0.57843569    -0.11000
C1285       C  0.81230852  0.43265917  0.59404661    -0.01000
C1286       C  0.80636817  0.41219974  0.61645478    -0.06100
H1287       H  0.74153755  0.41842269  0.61692496     0.06300
H1288       H  0.83225632  0.43581857  0.58760300     0.09700
Br1289     Br  0.78181608  0.41252986  0.71007506    -0.05800
Br1290     Br  0.76049853  0.30761065  0.61389345    -0.02800
Br1291     Br  0.73919486  0.46414118  0.57223050     0.00100
Br1292     Br  0.83389352  0.39145754  0.63444149    -0.04300
C1293       C  0.73689860  0.17798520  0.81386359    -0.11700
C1294       C  0.71513489  0.17301743  0.83492335     0.03800
C1295       C  0.71349618  0.15029393  0.85439045    -0.12300
C1296       C  0.73399633  0.13293265  0.85531508     0.18600
C1297       C  0.75583051  0.13789032  0.83419478    -0.09300
C1298       C  0.75695560  0.16013527  0.81330803    -0.02300
H1299       H  0.69656673  0.14670971  0.87040756     0.05100
C1300       C  0.73232867  0.11078621  0.88018282     0.20600
H1301       H  0.77395672  0.16403677  0.79759261     0.10300
C1302       C  0.73337344  0.08571220  0.86671601    -0.15600
C1303       C  0.72817260  0.06475697  0.88916985     0.03300
C1304       C  0.72081301  0.06892190  0.92529246    -0.11000
C1305       C  0.72113144  0.09387808  0.93900506    -0.01000
C1306       C  0.72730506  0.11458548  0.91714973    -0.06100
H1307       H  0.73733307  0.08247314  0.83839818     0.06300
H1308       H  0.71612004  0.09737937  0.96693943     0.09700
Br1309     Br  0.78538766  0.11619533  0.83518243    -0.05800
Br1310     Br  0.68833849  0.19769930  0.84079213    -0.02800
Br1311     Br  0.72959052  0.03127226  0.86846695     0.00100
Br1312     Br  0.72854595  0.14771387  0.93934891    -0.04300
C1313       C  0.82980117  0.27137705  0.81601828    -0.11700
C1314       C  0.85172284  0.25686945  0.80800056     0.03800
C1315       C  0.87416884  0.26034763  0.82811420    -0.12300
C1316       C  0.87492593  0.27798467  0.85652031     0.18600
C1317       C  0.85299620  0.29249185  0.86458295    -0.09300
C1318       C  0.83062857  0.28917178  0.84426011    -0.02300
H1319       H  0.89100596  0.24917826  0.82177447     0.05100
C1320       C  0.89874019  0.28131062  0.87744330     0.20600
H1321       H  0.81378395  0.30032501  0.85061789     0.10300
C1322       C  0.91728913  0.29842953  0.86496433    -0.15600
C1323       C  0.93861244  0.30436809  0.88626948     0.03300
C1324       C  0.94155539  0.29307907  0.92049571    -0.11000
C1325       C  0.92385200  0.27466686  0.93192484    -0.01000
C1326       C  0.90243131  0.26881891  0.91068725    -0.06100
H1327       H  0.91475896  0.30776073  0.83909089     0.06300
H1328       H  0.92595501  0.26583538  0.95822069     0.09700
Br1329     Br  0.85287486  0.31695046  0.90315097    -0.05800
Br1330     Br  0.85165785  0.23211733  0.76988961    -0.02800
Br1331     Br  0.96337833  0.32774423  0.86752392     0.00100
Br1332     Br  0.87798802  0.24472189  0.92872100    -0.04300
C1333       C  0.76367485  0.66827204  0.68881314    -0.11700
C1334       C  0.74459500  0.64924262  0.68667358     0.03800
C1335       C  0.74737331  0.62864463  0.66275673    -0.12300
C1336       C  0.76939504  0.62609424  0.64139727     0.18600
C1337       C  0.78917153  0.64430839  0.64532026    -0.09300
C1338       C  0.78608077  0.66521841  0.66850431    -0.02300
H1339       H  0.73204160  0.61484483  0.66031583     0.05100
C1340       C  0.77101062  0.60545371  0.61365371     0.20600
H1341       H  0.80101257  0.67951713  0.67005285     0.10300
C1342       C  0.77411339  0.61233530  0.57729262    -0.15600
C1343       C  0.77887197  0.59395957  0.55074238     0.03300
C1344       C  0.78007627  0.56785531  0.56008269    -0.11000
C1345       C  0.77475436  0.56072578  0.59583024    -0.01000
C1346       C  0.77039879  0.57924782  0.62259727    -0.06100
H1347       H  0.77372226  0.63229245  0.56969720     0.06300
H1348       H  0.77565638  0.54079953  0.60348730     0.09700
Br1349     Br  0.82100599  0.64139649  0.61992076    -0.05800
Br1350     Br  0.71435211  0.65073070  0.71580496    -0.02800
Br1351     Br  0.78381954  0.60575997  0.50212491     0.00100
Br1352     Br  0.76600023  0.56773991  0.67131779    -0.04300
C1353       C  0.67072901  0.76370699  0.68464334    -0.11700
C1354       C  0.67037653  0.78343371  0.65887692     0.03800
C1355       C  0.64847983  0.78747758  0.63795722    -0.12300
C1356       C  0.62650359  0.77254624  0.64300569     0.18600
C1357       C  0.62667740  0.75310738  0.66921033    -0.09300
C1358       C  0.64884880  0.74862140  0.68958652    -0.02300
H1359       H  0.64844553  0.80255808  0.61794762     0.05100
C1360       C  0.60356698  0.77804217  0.62095220     0.20600
H1361       H  0.64892790  0.73363765  0.70972618     0.10300
C1362       C  0.59570914  0.76062305  0.59441690    -0.15600
C1363       C  0.57580638  0.76662637  0.57043939     0.03300
C1364       C  0.56375054  0.79076711  0.57252146    -0.11000
C1365       C  0.57090082  0.80751762  0.60046418    -0.01000
C1366       C  0.59049965  0.80130277  0.62458212    -0.06100
H1367       H  0.60566023  0.74259806  0.59164534     0.06300
H1368       H  0.56158368  0.82585126  0.60315221     0.09700
Br1369     Br  0.59666656  0.73335815  0.67935630    -0.05800
Br1370     Br  0.69926382  0.80544067  0.65168196    -0.02800
Br1371     Br  0.56759644  0.74161447  0.53433405     0.00100
Br1372     Br  0.59893845  0.82521772  0.66202188    -0.04300
C1373       C  0.83432272  0.74189537  0.81129587    -0.11700
C1374       C  0.85723758  0.73854490  0.79184641     0.03800
C1375       C  0.88056299  0.73578155  0.81038058    -0.12300
C1376       C  0.88146277  0.73693568  0.84823478     0.18600
C1377       C  0.85875968  0.74161227  0.86749688    -0.09300
C1378       C  0.83544298  0.74387684  0.84906953    -0.02300
H1379       H  0.89793168  0.73225433  0.79531695     0.05100
C1380       C  0.90521665  0.73005506  0.86792074     0.20600
H1381       H  0.81804728  0.74698269  0.86427031     0.10300
C1382       C  0.92164331  0.74908256  0.88134221    -0.15600
C1383       C  0.94142838  0.74299264  0.90577019     0.03300
C1384       C  0.94453993  0.71756419  0.91759890    -0.11000
C1385       C  0.92885601  0.69852301  0.90239603    -0.01000
C1386       C  0.90960730  0.70452243  0.87757467    -0.06100
H1387       H  0.91833489  0.76882582  0.87407998     0.06300
H1388       H  0.93111914  0.67881414  0.91063848     0.09700
Br1389     Br  0.85873900  0.74418058  0.91920336    -0.05800
Br1390     Br  0.85749207  0.73811460  0.74004793    -0.02800
Br1391     Br  0.96179909  0.77038635  0.92460113     0.00100
Br1392     Br  0.88851340  0.67739840  0.85931430    -0.04300
C1393       C  0.73942898  0.83467413  0.80869342    -0.11700
C1394       C  0.72834338  0.83599528  0.84319940     0.03800
C1395       C  0.72457206  0.85965520  0.85963137    -0.12300
C1396       C  0.73166917  0.88225791  0.84214035     0.18600
C1397       C  0.74286246  0.88106885  0.80769028    -0.09300
C1398       C  0.74662808  0.85730842  0.79111907    -0.02300
H1399       H  0.71586111  0.86047599  0.88611322     0.05100
C1400       C  0.72659839  0.90667562  0.86059418     0.20600
H1401       H  0.75505962  0.85644536  0.76447409     0.10300
C1402       C  0.74494860  0.91653891  0.88443295    -0.15600
C1403       C  0.73894429  0.93661851  0.90790118     0.03300
C1404       C  0.71392387  0.94718562  0.90762392    -0.11000
C1405       C  0.69622627  0.93816232  0.88183353    -0.01000
C1406       C  0.70232593  0.91806306  0.85868007    -0.06100
H1407       H  0.76364453  0.90765937  0.88609452     0.06300
H1408       H  0.67702986  0.94591117  0.88070755     0.09700
Br1409     Br  0.75282554  0.91137932  0.78244010    -0.05800
Br1410     Br  0.71768128  0.80595161  0.86855819    -0.02800
Br1411     Br  0.76536386  0.94656357  0.94132211     0.00100
Br1412     Br  0.67629541  0.90550918  0.82662625    -0.04300
loop_ 
_geom_bond_atom_site_label_1 
_geom_bond_atom_site_label_2 
_geom_bond_distance 
_geom_bond_site_symmetry_2 
_ccdc_geom_bond_type 
N1            C6   1.354       .  A
N1            C5   1.355       .  A
N1           H33   1.040       .  S
N2            C9   1.354       .  A
N2           C10   1.353       .  A
N3            C8   1.355       .  A
N3            C7   1.352       .  A
N3           H34   1.039       .  S
N4           C11   1.349       .  A
N4           C12   1.350       .  A
C5           C13   1.388       .  A
C5           C21   1.418       .  A
C6           C22   1.414       .  A
C6           C14   1.386       .  A
C7           C15   1.388       .  A
C7           C24   1.417       .  A
C8           C23   1.415       .  A
C8           C16   1.386       .  A
C9           C21   1.417       .  A
C9           C17   1.385       .  A
C10          C24   1.419       .  A
C10          C18   1.387       .  A
C11          C19   1.386       .  A
C11          C22   1.410       .  A
C12          C20   1.387       .  A
C12          C23   1.411       .  A
C13          C14   1.375       .  A
C13          H25   1.082       .  S
C14          H26   1.082       .  S
C15          C16   1.376       .  A
C15          H27   1.082       .  S
C16          H28   1.082       .  S
C17          C18   1.377       .  A
C17          H29   1.082       .  S
C18          H30   1.082       .  S
C19          C20   1.373       .  A
C19          H31   1.083       .  S
C20          H32   1.082       .  S
C21        C1333   1.499       .  S
C22        C1353   1.482       .  S
C23        C1393   1.486       .  S
C24        C1373   1.492       .  S
N35          C40   1.351       .  A
N35          C39   1.353       .  A
N35          H67   1.039       .  S
N36          C43   1.350       .  A
N36          C44   1.349       .  A
N37          C42   1.353       .  A
N37          C41   1.352       .  A
N37          H68   1.039       .  S
N38          C45   1.351       .  A
N38          C46   1.351       .  A
C39          C47   1.387       .  A
C39          C55   1.412       .  A
C40          C56   1.413       .  A
C40          C48   1.387       .  A
C41          C49   1.388       .  A
C41          C58   1.415       .  A
C42          C57   1.412       .  A
C42          C50   1.386       .  A
C43          C55   1.410       .  A
C43          C51   1.385       .  A
C44          C58   1.413       .  A
C44          C52   1.387       .  A
C45          C53   1.386       .  A
C45          C56   1.414       .  A
C46          C54   1.386       .  A
C46          C57   1.413       .  A
C47          C48   1.375       .  A
C47          H59   1.082       .  S
C48          H60   1.082       .  S
C49          C50   1.376       .  A
C49          H61   1.082       .  S
C50          H62   1.082       .  S
C51          C52   1.374       .  A
C51          H63   1.082       .  S
C52          H64   1.082       .  S
C53          C54   1.374       .  A
C53          H65   1.082       .  S
C54          H66   1.082       .  S
C55        C1313   1.482       .  S
C56        C1293   1.486       .  S
C57        C1253   1.485       .  S
C58        C1273   1.485       .  S
N69          C74   1.353       .  A
N69          C73   1.356       .  A
N69         H101   1.037       .  S
N70          C77   1.354       .  A
N70          C78   1.352       .  A
N71          C76   1.354       .  A
N71          C75   1.350       .  A
N71         H102   1.038       .  S
N72          C79   1.350       .  A
N72          C80   1.353       .  A
C73          C81   1.386       .  A
C73          C89   1.418       .  A
C74          C90   1.418       .  A
C74          C82   1.388       .  A
C75          C83   1.387       .  A
C75          C92   1.413       .  A
C76          C91   1.414       .  A
C76          C84   1.387       .  A
C77          C89   1.416       .  A
C77          C85   1.385       .  A
C78          C92   1.416       .  A
C78          C86   1.387       .  A
C79          C87   1.388       .  A
C79          C90   1.415       .  A
C80          C88   1.385       .  A
C80          C91   1.413       .  A
C81          C82   1.376       .  A
C81          H93   1.082       .  S
C82          H94   1.082       .  S
C83          C84   1.374       .  A
C83          H95   1.082       .  S
C84          H96   1.082       .  S
C85          C86   1.375       .  A
C85          H97   1.082       .  S
C86          H98   1.082       .  S
C87          C88   1.374       .  A
C87          H99   1.082       .  S
C88         H100   1.082       .  S
C89        C1224   1.496       .  S
C90        C1244   1.482       .  S
C91        C1193   1.489       .  S
C92        C1173   1.483       .  S
N103        C108   1.354       .  A
N103        C107   1.354       .  A
N103        H135   1.039       .  S
N104        C111   1.353       .  A
N104        C112   1.353       .  A
N105        C110   1.354       .  A
N105        C109   1.354       .  A
N105        H136   1.038       .  S
N106        C113   1.352       .  A
N106        C114   1.352       .  A
C107        C115   1.387       .  A
C107        C123   1.416       .  A
C108        C124   1.416       .  A
C108        C116   1.387       .  A
C109        C117   1.387       .  A
C109        C126   1.417       .  A
C110        C125   1.417       .  A
C110        C118   1.387       .  A
C111        C123   1.415       .  A
C111        C119   1.386       .  A
C112        C126   1.416       .  A
C112        C120   1.386       .  A
C113        C121   1.386       .  A
C113        C124   1.415       .  A
C114        C122   1.387       .  A
C114        C125   1.415       .  A
C115        C116   1.375       .  A
C115        H127   1.082       .  S
C116        H128   1.082       .  S
C117        C118   1.376       .  A
C117        H129   1.082       .  S
C118        H130   1.082       .  S
C119        C120   1.375       .  A
C119        H131   1.082       .  S
C120        H132   1.082       .  S
C121        C122   1.375       .  A
C121        H133   1.082       .  S
C122        H134   1.082       .  S
C123       C1133   1.490       .  S
C124       C1153   1.490       .  S
C125       C1124   1.487       .  S
C126       C1093   1.489       .  S
N137        C142   1.355       .  A
N137        C141   1.354       .  A
N137        H169   1.022       .  S
N138        C145   1.354       .  A
N138        C146   1.354       .  A
N139        C144   1.354       .  A
N139        C143   1.355       .  A
N139        H170   1.025       .  S
N140        C147   1.352       .  A
N140        C148   1.351       .  A
C141        C149   1.389       .  A
C141        C157   1.421       .  A
C142        C158   1.419       .  A
C142        C150   1.386       .  A
C143        C151   1.388       .  A
C143        C160   1.419       .  A
C144        C159   1.419       .  A
C144        C152   1.388       .  A
C145        C157   1.421       .  A
C145        C153   1.387       .  A
C146        C160   1.420       .  A
C146        C154   1.386       .  A
C147        C155   1.387       .  A
C147        C158   1.416       .  A
C148        C156   1.388       .  A
C148        C159   1.415       .  A
C149        C150   1.374       .  A
C149        H161   1.082       .  S
C150        H162   1.082       .  S
C151        C152   1.374       .  A
C151        H163   1.082       .  S
C152        H164   1.082       .  S
C153        C154   1.375       .  A
C153        H165   1.082       .  S
C154        H166   1.082       .  S
C155        C156   1.370       .  A
C155        H167   1.082       .  S
C156        H168   1.082       .  S
C157       C1053   1.491       .  S
C158       C1084   1.487       .  S
C159       C1033   1.482       .  S
C160       C1013   1.490       .  S
N171        C176   1.350       .  A
N171        C175   1.353       .  A
N171        H203   1.039       .  S
N172        C179   1.353       .  A
N172        C180   1.350       .  A
N173        C178   1.356       .  A
N173        C177   1.352       .  A
N173        H204   1.040       .  S
N174        C181   1.349       .  A
N174        C182   1.352       .  A
C175        C183   1.387       .  A
C175        C191   1.413       .  A
C176        C192   1.412       .  A
C176        C184   1.387       .  A
C177        C185   1.387       .  A
C177        C194   1.415       .  A
C178        C193   1.418       .  A
C178        C186   1.387       .  A
C179        C191   1.414       .  A
C179        C187   1.385       .  A
C180        C194   1.413       .  A
C180        C188   1.387       .  A
C181        C189   1.387       .  A
C181        C192   1.411       .  A
C182        C190   1.386       .  A
C182        C193   1.412       .  A
C183        C184   1.376       .  A
C183        H195   1.082       .  S
C184        H196   1.082       .  S
C185        C186   1.376       .  A
C185        H197   1.082       .  S
C186        H198   1.082       .  S
C187        C188   1.375       .  A
C187        H199   1.082       .  S
C188        H200   1.082       .  S
C189        C190   1.374       .  A
C189        H201   1.082       .  S
C190        H202   1.082       .  S
C191        C964   1.489       .  S
C192        C933   1.479       .  S
C193        C973   1.498       .  S
C194        C993   1.483       .  S
N205        C210   1.354       .  A
N205        C209   1.353       .  A
N205        H237   1.039       .  S
N206        C213   1.353       .  A
N206        C214   1.354       .  A
N207        C212   1.354       .  A
N207        C211   1.356       .  A
N207        H238   1.038       .  S
N208        C215   1.353       .  A
N208        C216   1.353       .  A
C209        C217   1.388       .  A
C209        C225   1.417       .  A
C210        C226   1.415       .  A
C210        C218   1.387       .  A
C211        C219   1.386       .  A
C211        C228   1.419       .  A
C212        C227   1.418       .  A
C212        C220   1.387       .  A
C213        C225   1.416       .  A
C213        C221   1.387       .  A
C214        C228   1.417       .  A
C214        C222   1.386       .  A
C215        C223   1.385       .  A
C215        C226   1.414       .  A
C216        C224   1.387       .  A
C216        C227   1.417       .  A
C217        C218   1.375       .  A
C217        H229   1.082       .  S
C218        H230   1.082       .  S
C219        C220   1.377       .  A
C219        H231   1.082       .  S
C220        H232   1.082       .  S
C221        C222   1.374       .  A
C221        H233   1.082       .  S
C222        H234   1.082       .  S
C223        C224   1.374       .  A
C223        H235   1.082       .  S
C224        H236   1.082       .  S
C225        C924   1.491       .  S
C226        C884   1.489       .  S
C227        C853   1.492       .  S
C228        C893   1.498       .  S
O239        C254   1.261       .  A
O239       Al247   1.907       .  S
C240        C833   1.476       .  S
C240        O250   1.258       .  A
C240        O241   1.261       .  A
O241       Al243   1.918       .  S
O242        C244   1.260       .  A
O242       Al243   1.875       .  S
Al243       O251   1.877       .  S
Al243       O253   1.908       .  S
Al243       O252   1.780       .  S
C244       C1044   1.484       .  S
C244        O257   1.264       .  A
O245        C255   1.259       .  A
O245       Al247   1.904       .  S
O246        C259   1.260       .  A
O246       Al256   1.882       .  S
Al247       O260   1.927       .  S
Al247       O257   1.923       .  S
Al247       O252   1.787       .  S
O248        C255   1.258       .  A
O248       Al256   1.889       .  S
O249        C258   1.262       .  A
O249       Al256   1.913       .  S
O250       Al256   1.900       .  S
O251        C258   1.257       .  A
O252       Al256   1.780       .  S
O253        C254   1.260       .  A
C254       C1104   1.471       .  S
C255        C944   1.471       .  S
C258        C813   1.464       .  S
C259       C1364   1.482       .  S
C259        O260   1.265       .  A
O261        C276   1.263       .  A
O261       Al269   1.916   1_564  S
C262        C804   1.471       .  S
C262        O272   1.259       .  A
C262        O263   1.264   1_545  A
O263       Al265   1.928       .  S
O264        C266   1.262       .  A
O264       Al265   1.889       .  S
Al265       O273   1.898   1_556  S
Al265       O275   1.905   1_556  S
Al265       O274   1.777   1_565  S
C266       C1404   1.488       .  S
C266        O279   1.264       .  A
O267        C277   1.263       .  A
O267       Al269   1.916       .  S
O268        C281   1.261       .  A
O268       Al278   1.893   1_554  S
Al269       O282   1.920   1_556  S
Al269       O279   1.924   1_545  S
Al269       O274   1.783       .  S
O270        C277   1.261       .  A
O270       Al278   1.903       .  S
O271        C280   1.262       .  A
O271       Al278   1.920   1_554  S
O272       Al278   1.898       .  S
O273        C280   1.259   1_565  A
O274       Al278   1.780       .  S
O275        C276   1.262       .  A
C276        C984   1.482       .  S
C277       C1304   1.478       .  S
C280        C784   1.477       .  S
C281        C913   1.476       .  S
C281        O282   1.264       .  A
O283        C298   1.262       .  A
O283       Al291   1.911       .  S
C284        C713   1.475   1_565  S
C284        O294   1.256   1_565  A
C284        O285   1.265       .  A
O285       Al287   1.928   1_554  S
O286        C288   1.259       .  A
O286       Al287   1.883   1_554  S
Al287       O295   1.894       .  S
Al287       O297   1.918       .  S
Al287       O296   1.779       .  S
C288       C1073   1.482       .  S
C288        O301   1.268       .  A
O289        C299   1.263       .  A
O289       Al291   1.915   1_544  S
O290        C303   1.257       .  A
O290       Al300   1.872       .  S
Al291       O304   1.939   1_565  S
Al291       O301   1.939   1_556  S
Al291       O296   1.785       .  S
O292        C299   1.262       .  A
O292       Al300   1.910   1_554  S
O293        C302   1.264   1_545  A
O293       Al300   1.920       .  S
O294       Al300   1.881   1_554  S
O295        C302   1.258       .  A
O296       Al300   1.777   1_565  S
O297        C298   1.262       .  A
C298       C1144   1.473       .  S
C299        C753   1.481       .  S
C302        C733   1.488       .  S
C303       C1233   1.482       .  S
C303        O304   1.267       .  A
O305        C320   1.260       .  A
O305       Al313   1.907       .  S
C306        C684   1.480       .  S
C306        O316   1.259       .  A
C306        O307   1.264       .  A
O307       Al309   1.932       .  S
O308        C310   1.264       .  A
O308       Al309   1.900       .  S
Al309       O317   1.912       .  S
Al309       O319   1.892       .  S
Al309       O318   1.791       .  S
C310        C873   1.487       .  S
C310        O323   1.266       .  A
O311        C321   1.260       .  A
O311       Al313   1.922       .  S
O312        C325   1.261       .  A
O312       Al322   1.884       .  S
Al313       O326   1.932       .  S
Al313       O323   1.915       .  S
Al313       O318   1.795       .  S
O314        C321   1.258       .  A
O314       Al322   1.898       .  S
O315        C324   1.261       .  A
O315       Al322   1.921       .  S
O316       Al322   1.894       .  S
O317        C324   1.261       .  A
O318       Al322   1.784       .  S
O319        C320   1.256       .  A
C320       C1264   1.473       .  S
C321        C693   1.494       .  S
C324        C653   1.496       .  S
C325       C1204   1.487       .  S
C325        O326   1.267       .  A
C327        C673   1.574   1_565  S
C327        C724   1.569       .  S
C327        C773   1.568       .  S
C327        C844   1.571       .  S
C328        C664   1.584   1_565  S
C328        C744   1.581       .  S
C328        C793   1.588       .  S
C328        C824   1.559       .  S
O329        C344   1.265       .  A
O329       Al337   1.927       .  S
C330        C633   1.469       .  S
C330        O340   1.259       .  A
C330        O331   1.265       .  A
O331       Al333   1.933       .  S
O332        C334   1.259       .  A
O332       Al333   1.880       .  S
Al333       O341   1.904       .  S
Al333       O343   1.902       .  S
Al333       O342   1.779       .  S
C334        C953   1.485       .  S
C334        O347   1.271       .  A
O335        C345   1.267       .  A
O335       Al337   1.938       .  S
O336        C349   1.261       .  A
O336       Al346   1.876       .  S
Al337       O350   1.943       .  S
Al337       O347   1.943       .  S
Al337       O342   1.781       .  S
O338        C345   1.257       .  A
O338       Al346   1.890       .  S
O339        C348   1.260       .  A
O339       Al346   1.903       .  S
O340       Al346   1.884       .  S
O341        C348   1.259       .  A
O342       Al346   1.772       .  S
O343        C344   1.260       .  A
C344       C1344   1.484       .  S
C345        C864   1.487       .  S
C348        C613   1.476       .  S
C349       C1284   1.487       .  S
C349        O350   1.269       .  A
O351        C366   1.267       .  A
O351       Al359   1.921   1_554  S
C352        C593   1.461       .  S
C352        O362   1.256       .  A
C352        O353   1.263   1_655  A
O353       Al355   1.915       .  S
O354        C356   1.254       .  A
O354       Al355   1.882       .  S
Al355       O363   1.884   1_556  S
Al355       O365   1.909   1_556  S
Al355       O364   1.786       .  S
C356       C1164   1.491       .  S
C356        O369   1.264       .  A
O357        C367   1.264       .  A
O357       Al359   1.925   1_655  S
O358        C371   1.258       .  A
O358       Al368   1.881   1_554  S
Al359       O372   1.945   1_456  S
Al359       O369   1.936       .  S
Al359       O364   1.796       .  S
O360        C367   1.260       .  A
O360       Al368   1.902       .  S
O361        C370   1.257   1_655  A
O361       Al368   1.911   1_554  S
O362       Al368   1.877       .  S
O363        C370   1.254       .  A
O364       Al368   1.788   1_455  S
O365        C366   1.264       .  A
C366       C1064   1.483       .  S
C367       C1384   1.487       .  S
C370        C573   1.473   1_455  S
C371       C1004   1.475       .  S
C371        O372   1.268       .  A
O373        C388   1.261       .  A
O373       Al381   1.930   1_654  S
C374        C533   1.480       .  S
C374        O384   1.260   1_655  A
C374        O375   1.260       .  A
O375       Al377   1.921       .  S
O376        C378   1.264       .  A
O376       Al377   1.890       .  S
Al377       O385   1.913   1_556  S
Al377       O387   1.894   1_556  S
Al377       O386   1.786   1_655  S
C378       C1324   1.470       .  S
C378        O391   1.268       .  A
O379        C389   1.263       .  A
O379       Al381   1.927       .  S
O380        C393   1.262       .  A
O380       Al390   1.896   1_554  S
Al381       O394   1.913   1_556  S
Al381       O391   1.929   1_455  S
Al381       O386   1.794       .  S
O382        C389   1.255       .  A
O382       Al390   1.891       .  S
O383        C392   1.263       .  A
O383       Al390   1.922   1_554  S
O384       Al390   1.910       .  S
O385        C392   1.265   1_655  A
O386       Al390   1.785       .  S
O387        C388   1.254       .  A
C388        C904   1.481       .  S
C389       C1213   1.482       .  S
C392        C513   1.487       .  S
C393        C564   1.483       .  S
C393        O394   1.265       .  A
O395        C410   1.262       .  A
O395       Al403   1.918       .  S
C396        C453   1.482       .  S
C396        O406   1.261       .  A
C396        O397   1.257       .  A
O397       Al399   1.902       .  S
O398        C400   1.261       .  A
O398       Al399   1.889       .  S
Al399       O407   1.904       .  S
Al399       O409   1.896       .  S
Al399       O408   1.785       .  S
C400       C1113   1.474       .  S
C400        O413   1.265       .  A
O401        C411   1.262       .  A
O401       Al403   1.912       .  S
O402        C415   1.261       .  A
O402       Al412   1.894       .  S
Al403       O416   1.918       .  S
Al403       O413   1.924       .  S
Al403       O408   1.793       .  S
O404        C411   1.258       .  A
O404       Al412   1.895       .  S
O405        C414   1.261       .  A
O405       Al412   1.909       .  S
O406       Al412   1.908       .  S
O407        C414   1.263       .  A
O408       Al412   1.783       .  S
O409        C410   1.257       .  A
C410       C1024   1.471       .  S
C411       C1184   1.480       .  S
C414        C473   1.484       .  S
C415        C504   1.481       .  S
C415        O416   1.264       .  A
C417        C484   1.575   1_655  S
C417        C524   1.579   1_655  S
C417        C584   1.565   1_655  S
C417        C644   1.569       .  S
C418        C464   1.570       .  S
C418        C544   1.569       .  S
C418        C604   1.582       .  S
C418        C624   1.576   1_455  S
N419        C424   1.357       .  A
N419        C423   1.354       .  A
N419        H451   1.037       .  S
N420        C427   1.353       .  A
N420        C428   1.355       .  A
N421        C426   1.352       .  A
N421        C425   1.355       .  A
N421        H452   1.036       .  S
N422        C429   1.352       .  A
N422        C430   1.352       .  A
C423        C431   1.388       .  A
C423        C439   1.421       .  A
C424        C440   1.420       .  A
C424        C432   1.387       .  A
C425        C433   1.387       .  A
C425        C442   1.418       .  A
C426        C441   1.417       .  A
C426        C434   1.388       .  A
C427        C439   1.419       .  A
C427        C435   1.387       .  A
C428        C442   1.419       .  A
C428        C436   1.385       .  A
C429        C437   1.386       .  A
C429        C440   1.414       .  A
C430        C438   1.387       .  A
C430        C441   1.416       .  A
C431        C432   1.376       .  A
C431        H443   1.082       .  S
C432        H444   1.082       .  S
C433        C434   1.375       .  A
C433        H445   1.082       .  S
C434        H446   1.082       .  S
C435        C436   1.374       .  A
C435        H447   1.082       .  S
C436        H448   1.082       .  S
C437        C438   1.371       .  A
C437        H449   1.082       .  S
C438        H450   1.082       .  S
C439        C764   1.489       .  S
C440        C553   1.490       .  S
C441        C493   1.483       .  S
C442        C704   1.496       .  S
C453        C454   1.417       .  A
C453        C458   1.404       .  A
C454        C455   1.399       .  A
C454       Br470   1.923       .  S
C455        C456   1.401       .  A
C455        H459   1.084       .  S
C456        C457   1.408       .  A
C456        C460   1.480       .  S
C457        C458   1.399       .  A
C457       Br469   1.918       .  S
C458        H461   1.081       .  S
C460        C462   1.392       .  A
C460        C466   1.402       .  A
C462        C463   1.397       .  A
C462        H467   1.084       .  S
C463        C464   1.434       .  A
C463       Br471   1.916       .  S
C464        C465   1.421       .  A
C465        C466   1.401       .  A
C465        H468   1.079       .  S
C466       Br472   1.919       .  S
C473        C474   1.418       .  A
C473        C478   1.405       .  A
C474        C475   1.397       .  A
C474       Br490   1.923       .  S
C475        C476   1.400       .  A
C475        H479   1.084       .  S
C476        C477   1.408       .  A
C476        C480   1.480       .  S
C477        C478   1.399       .  A
C477       Br489   1.919       .  S
C478        H481   1.081       .  S
C480        C482   1.394       .  A
C480        C486   1.401       .  A
C482        C483   1.399       .  A
C482        H487   1.084       .  S
C483        C484   1.434       .  A
C483       Br491   1.915       .  S
C484        C485   1.422       .  A
C485        C486   1.397       .  A
C485        H488   1.078       .  S
C486       Br492   1.921       .  S
C493        C494   1.407       .  A
C493        C498   1.403       .  A
C494        C495   1.396       .  A
C494       Br510   1.919       .  S
C495        C496   1.401       .  A
C495        H499   1.084       .  S
C496        C497   1.408       .  A
C496        C500   1.474       .  S
C497        C498   1.400       .  A
C497       Br509   1.917       .  S
C498        H501   1.083       .  S
C500        C502   1.400       .  A
C500        C506   1.406       .  A
C502        C503   1.399       .  A
C502        H507   1.084       .  S
C503        C504   1.416       .  A
C503       Br511   1.922       .  S
C504        C505   1.406       .  A
C505        C506   1.399       .  A
C505        H508   1.084       .  S
C506       Br512   1.918       .  S
C513        C514   1.416       .  A
C513        C518   1.405   1_455  A
C514        C515   1.401       .  A
C514       Br530   1.920       .  S
C515        C516   1.405       .  A
C515        H519   1.083       .  S
C516        C517   1.413   1_455  A
C516        C520   1.496       .  S
C517        C518   1.402       .  A
C517       Br529   1.920       .  S
C518        H521   1.084       .  S
C520        C522   1.400   1_455  A
C520        C526   1.406       .  A
C522        C523   1.403       .  A
C522        H527   1.084       .  S
C523        C524   1.436   1_655  A
C523       Br531   1.928       .  S
C524        C525   1.421       .  A
C525        C526   1.399       .  A
C525        H528   1.081       .  S
C526       Br532   1.921       .  S
C533        C534   1.410       .  A
C533        C538   1.401       .  A
C534        C535   1.401       .  A
C534       Br550   1.916       .  S
C535        C536   1.405       .  A
C535        H539   1.082       .  S
C536        C537   1.413       .  A
C536        C540   1.493       .  S
C537        C538   1.400       .  A
C537       Br549   1.922       .  S
C538        H541   1.081   1_655  S
C540        C542   1.399   1_655  A
C540        C546   1.404       .  A
C542        C543   1.402       .  A
C542        H547   1.084       .  S
C543        C544   1.439       .  A
C543       Br551   1.930       .  S
C544        C545   1.422   1_455  A
C545        C546   1.399       .  A
C545        H548   1.081       .  S
C546       Br552   1.921       .  S
C553        C554   1.409       .  A
C553        C558   1.402       .  A
C554        C555   1.403       .  A
C554       Br570   1.916       .  S
C555        C556   1.404       .  A
C555        H559   1.083       .  S
C556        C557   1.407       .  A
C556        C560   1.480       .  S
C557        C558   1.398       .  A
C557       Br569   1.919       .  S
C558        H561   1.083       .  S
C560        C562   1.402       .  A
C560        C566   1.406       .  A
C562        C563   1.401       .  A
C562        H567   1.084       .  S
C563        C564   1.415       .  A
C563       Br571   1.921       .  S
C564        C565   1.407       .  A
C565        C566   1.399       .  A
C565        H568   1.084       .  S
C566       Br572   1.918       .  S
C573        C574   1.408   1_655  A
C573        C578   1.403       .  A
C574        C575   1.398       .  A
C574       Br590   1.919       .  S
C575        C576   1.402   1_455  A
C575        H579   1.084       .  S
C576        C577   1.410       .  A
C576        C580   1.480       .  S
C577        C578   1.401       .  A
C577       Br589   1.919       .  S
C578        H581   1.084       .  S
C580        C582   1.397   1_655  A
C580        C586   1.398       .  A
C582        C583   1.404       .  A
C582        H587   1.084       .  S
C583        C584   1.436       .  A
C583       Br591   1.927       .  S
C584        C585   1.420   1_455  A
C585        C586   1.395       .  A
C585        H588   1.078       .  S
C586       Br592   1.919       .  S
C593        C594   1.409       .  A
C593        C598   1.397       .  A
C594        C595   1.398       .  A
C594       Br610   1.920       .  S
C595        C596   1.402       .  A
C595        H599   1.083       .  S
C596        C597   1.410       .  A
C596        C600   1.474       .  S
C597        C598   1.394       .  A
C597       Br609   1.921   1_655  S
C598        H601   1.084   1_655  S
C600        C602   1.393   1_655  A
C600        C606   1.397       .  A
C602        C603   1.396       .  A
C602        H607   1.084       .  S
C603        C604   1.431       .  A
C603       Br611   1.914       .  S
C604        C605   1.429   1_455  A
C605        C606   1.396       .  A
C605        H608   1.079       .  S
C606       Br612   1.921       .  S
C613        C614   1.415       .  A
C613        C618   1.405       .  A
C614        C615   1.403       .  A
C614       Br630   1.921       .  S
C615        C616   1.402       .  A
C615        H619   1.083       .  S
C616        C617   1.403       .  A
C616        C620   1.470       .  S
C617        C618   1.391       .  A
C617       Br629   1.921       .  S
C618        H621   1.084       .  S
C620        C622   1.395       .  A
C620        C626   1.393       .  A
C622        C623   1.404       .  A
C622        H627   1.084       .  S
C623        C624   1.441       .  A
C623       Br631   1.929       .  S
C624        C625   1.424       .  A
C625        C626   1.389       .  A
C625        H628   1.082       .  S
C626       Br632   1.920       .  S
C633        C634   1.409       .  A
C633        C638   1.402       .  A
C634        C635   1.397       .  A
C634       Br650   1.921       .  S
C635        C636   1.400       .  A
C635        H639   1.083       .  S
C636        C637   1.409       .  A
C636        C640   1.475       .  S
C637        C638   1.400       .  A
C637       Br649   1.919       .  S
C638        H641   1.084       .  S
C640        C642   1.393       .  A
C640        C646   1.396       .  A
C642        C643   1.402       .  A
C642        H647   1.084       .  S
C643        C644   1.442       .  A
C643       Br651   1.927       .  S
C644        C645   1.424       .  A
C645        C646   1.395       .  A
C645        H648   1.082       .  S
C646       Br652   1.918       .  S
C653        C654   1.422       .  A
C653        C658   1.409       .  A
C654        C655   1.402       .  A
C654       Br670   1.921       .  S
C655        C656   1.399       .  A
C655        H659   1.084       .  S
C656        C657   1.406       .  A
C656        C660   1.481       .  S
C657        C658   1.403       .  A
C657       Br669   1.919       .  S
C658        H661   1.083       .  S
C660        C662   1.387       .  A
C660        C666   1.403       .  A
C662        C663   1.393       .  A
C662        H667   1.085       .  S
C663        C664   1.445       .  A
C663       Br671   1.931   1_545  S
C664        C665   1.422       .  A
C665        C666   1.407       .  A
C665        H668   1.083       .  S
C666       Br672   1.914       .  S
C673        C674   1.440       .  A
C673        C678   1.419       .  A
C674        C675   1.403       .  A
C674       Br690   1.930       .  S
C675        C676   1.398       .  A
C675        H679   1.084       .  S
C676        C677   1.401       .  A
C676        C680   1.489       .  S
C677        C678   1.398       .  A
C677       Br689   1.919       .  S
C678        H681   1.076       .  S
C680        C682   1.407       .  A
C680        C686   1.410       .  A
C682        C683   1.404       .  A
C682        H687   1.083       .  S
C683        C684   1.410       .  A
C683       Br691   1.919       .  S
C684        C685   1.404       .  A
C685        C686   1.399       .  A
C685        H688   1.084       .  S
C686       Br692   1.919       .  S
C693        C694   1.416       .  A
C693        C698   1.408       .  A
C694        C695   1.410       .  A
C694       Br710   1.919       .  S
C695        C696   1.406       .  A
C695        H699   1.083       .  S
C696        C697   1.407       .  A
C696        C700   1.490       .  S
C697        C698   1.398       .  A
C697       Br709   1.920       .  S
C698        H701   1.084       .  S
C700        C702   1.405       .  A
C700        C706   1.412       .  A
C702        C703   1.407       .  A
C702        H707   1.083       .  S
C703        C704   1.411       .  A
C703       Br711   1.917       .  S
C704        C705   1.402       .  A
C705        C706   1.401       .  A
C705        H708   1.083       .  S
C706       Br712   1.920       .  S
C713        C714   1.410   1_545  A
C713        C718   1.406       .  A
C714        C715   1.398       .  A
C714       Br730   1.921       .  S
C715        C716   1.402   1_565  A
C715        H719   1.084       .  S
C716        C717   1.408       .  A
C716        C720   1.478       .  S
C717        C718   1.399       .  A
C717       Br729   1.918       .  S
C718        H721   1.084       .  S
C720        C722   1.394       .  A
C720        C726   1.400   1_545  A
C722        C723   1.401       .  A
C722        H727   1.084       .  S
C723        C724   1.436   1_545  A
C723       Br731   1.923       .  S
C724        C725   1.419       .  A
C725        C726   1.398       .  A
C725        H728   1.077       .  S
C726       Br732   1.920       .  S
C733        C734   1.419       .  A
C733        C738   1.409   1_565  A
C734        C735   1.401       .  A
C734       Br750   1.922       .  S
C735        C736   1.399       .  A
C735        H739   1.084       .  S
C736        C737   1.403   1_565  A
C736        C740   1.474       .  S
C737        C738   1.396       .  A
C737       Br749   1.919       .  S
C738        H741   1.083       .  S
C740        C742   1.394       .  A
C740        C746   1.393       .  A
C742        C743   1.405       .  A
C742        H747   1.084       .  S
C743        C744   1.436       .  A
C743       Br751   1.913       .  S
C744        C745   1.427       .  A
C745        C746   1.391       .  A
C745        H748   1.072       .  S
C746       Br752   1.922       .  S
C753        C754   1.410       .  A
C753        C758   1.405       .  A
C754        C755   1.404       .  A
C754       Br770   1.915       .  S
C755        C756   1.405       .  A
C755        H759   1.083       .  S
C756        C757   1.410       .  A
C756        C760   1.487       .  S
C757        C758   1.399       .  A
C757       Br769   1.921       .  S
C758        H761   1.084       .  S
C760        C762   1.406       .  A
C760        C766   1.413       .  A
C762        C763   1.404       .  A
C762        H767   1.083       .  S
C763        C764   1.408       .  A
C763       Br771   1.917       .  S
C764        C765   1.401       .  A
C765        C766   1.399       .  A
C765        H768   1.083       .  S
C766       Br772   1.920       .  S
C773        C774   1.437       .  A
C773        C778   1.420   1_565  A
C774        C775   1.397       .  A
C774       Br790   1.923       .  S
C775        C776   1.392       .  A
C775        H779   1.084       .  S
C776        C777   1.400   1_565  A
C776        C780   1.476   1_565  S
C777        C778   1.400       .  A
C777       Br789   1.918       .  S
C778        H781   1.077       .  S
C780        C782   1.401       .  A
C780        C786   1.407   1_545  A
C782        C783   1.398       .  A
C782        H787   1.084       .  S
C783        C784   1.411       .  A
C783       Br791   1.919       .  S
C784        C785   1.406   1_545  A
C785        C786   1.400       .  A
C785        H788   1.084       .  S
C786       Br792   1.918       .  S
C793        C794   1.438       .  A
C793        C798   1.422   1_565  A
C794        C795   1.396       .  A
C794       Br810   1.920       .  S
C795        C796   1.391   1_565  A
C795        H799   1.084       .  S
C796        C797   1.401       .  A
C796        C800   1.479       .  S
C797        C798   1.404       .  A
C797       Br809   1.917       .  S
C798        H801   1.076       .  S
C800        C802   1.401       .  A
C800        C806   1.410       .  A
C802        C803   1.401       .  A
C802        H807   1.083       .  S
C803        C804   1.408       .  A
C803       Br811   1.914       .  S
C804        C805   1.400       .  A
C805        C806   1.400       .  A
C805        H808   1.083       .  S
C806       Br812   1.918       .  S
C813        C814   1.405       .  A
C813        C818   1.404       .  A
C814        C815   1.394       .  A
C814       Br830   1.919       .  S
C815        C816   1.404       .  A
C815        H819   1.083       .  S
C816        C817   1.406       .  A
C816        C820   1.473       .  S
C817        C818   1.397       .  A
C817       Br829   1.918       .  S
C818        H821   1.082       .  S
C820        C822   1.398       .  A
C820        C826   1.401       .  A
C822        C823   1.402       .  A
C822        H827   1.084       .  S
C823        C824   1.435       .  A
C823       Br831   1.924       .  S
C824        C825   1.423       .  A
C825        C826   1.392       .  A
C825        H828   1.083       .  S
C826       Br832   1.921       .  S
C833        C834   1.408       .  A
C833        C838   1.404       .  A
C834        C835   1.398       .  A
C834       Br850   1.919       .  S
C835        C836   1.405       .  A
C835        H839   1.083       .  S
C836        C837   1.412       .  A
C836        C840   1.487       .  S
C837        C838   1.402       .  A
C837       Br849   1.920       .  S
C838        H841   1.084       .  S
C840        C842   1.395       .  A
C840        C846   1.403       .  A
C842        C843   1.400       .  A
C842        H847   1.084       .  S
C843        C844   1.440       .  A
C843       Br851   1.930       .  S
C844        C845   1.418       .  A
C845        C846   1.397       .  A
C845        H848   1.077       .  S
C846       Br852   1.920       .  S
C853        C854   1.409       .  A
C853        C858   1.404       .  A
C854        C855   1.401       .  A
C854       Br870   1.918       .  S
C855        C856   1.402       .  A
C855        H859   1.083       .  S
C856        C857   1.411       .  A
C856        C860   1.484       .  S
C857        C858   1.403       .  A
C857       Br869   1.918       .  S
C858        H861   1.083       .  S
C860        C862   1.406       .  A
C860        C866   1.405       .  A
C862        C863   1.407       .  A
C862        H867   1.083       .  S
C863        C864   1.411       .  A
C863       Br871   1.916       .  S
C864        C865   1.410       .  A
C865        C866   1.398       .  A
C865        H868   1.084       .  S
C866       Br872   1.919       .  S
C873        C874   1.414       .  A
C873        C878   1.409       .  A
C874        C875   1.402       .  A
C874       Br890   1.921       .  S
C875        C876   1.402       .  A
C875        H879   1.083       .  S
C876        C877   1.405       .  A
C876        C880   1.479       .  S
C877        C878   1.399       .  A
C877       Br889   1.918       .  S
C878        H881   1.082       .  S
C880        C882   1.402       .  A
C880        C886   1.409       .  A
C882        C883   1.402       .  A
C882        H887   1.083       .  S
C883        C884   1.409       .  A
C883       Br891   1.917       .  S
C884        C885   1.402       .  A
C885        C886   1.400       .  A
C885        H888   1.083       .  S
C886       Br892   1.918       .  S
C893        C894   1.410       .  A
C893        C898   1.406       .  A
C894        C895   1.403       .  A
C894       Br910   1.919       .  S
C895        C896   1.406       .  A
C895        H899   1.083       .  S
C896        C897   1.409       .  A
C896        C900   1.490       .  S
C897        C898   1.404       .  A
C897       Br909   1.917       .  S
C898        H901   1.083       .  S
C900        C902   1.408       .  A
C900        C906   1.408       .  A
C902        C903   1.408       .  A
C902        H907   1.083       .  S
C903        C904   1.409       .  A
C903       Br911   1.917       .  S
C904        C905   1.405       .  A
C905        C906   1.399       .  A
C905        H908   1.084       .  S
C906       Br912   1.919       .  S
C913        C914   1.414       .  A
C913        C918   1.404       .  A
C914        C915   1.397       .  A
C914       Br930   1.922       .  S
C915        C916   1.401       .  A
C915        H919   1.084       .  S
C916        C917   1.409       .  A
C916        C920   1.480       .  S
C917        C918   1.399       .  A
C917       Br929   1.919       .  S
C918        H921   1.084       .  S
C920        C922   1.403       .  A
C920        C926   1.409       .  A
C922        C923   1.398       .  A
C922        H927   1.084       .  S
C923        C924   1.411       .  A
C923       Br931   1.920       .  S
C924        C925   1.404       .  A
C925        C926   1.399       .  A
C925        H928   1.083       .  S
C926       Br932   1.919       .  S
C933        C934   1.408       .  A
C933        C938   1.401       .  A
C934        C935   1.398       .  A
C934       Br950   1.918       .  S
C935        C936   1.401       .  A
C935        H939   1.083       .  S
C936        C937   1.407       .  A
C936        C940   1.469       .  S
C937        C938   1.395       .  A
C937       Br949   1.919       .  S
C938        H941   1.084       .  S
C940        C942   1.402       .  A
C940        C946   1.403       .  A
C942        C943   1.401       .  A
C942        H947   1.083       .  S
C943        C944   1.410       .  A
C943       Br951   1.917       .  S
C944        C945   1.405       .  A
C945        C946   1.392       .  A
C945        H948   1.084       .  S
C946       Br952   1.919       .  S
C953        C954   1.417       .  A
C953        C958   1.407       .  A
C954        C955   1.399       .  A
C954       Br970   1.921       .  S
C955        C956   1.400       .  A
C955        H959   1.084       .  S
C956        C957   1.408       .  A
C956        C960   1.481       .  S
C957        C958   1.401       .  A
C957       Br969   1.918       .  S
C958        H961   1.083       .  S
C960        C962   1.404       .  A
C960        C966   1.410       .  A
C962        C963   1.402       .  A
C962        H967   1.083       .  S
C963        C964   1.409       .  A
C963       Br971   1.917       .  S
C964        C965   1.402       .  A
C965        C966   1.400       .  A
C965        H968   1.083       .  S
C966       Br972   1.920       .  S
C973        C974   1.413       .  A
C973        C978   1.407       .  A
C974        C975   1.400       .  A
C974       Br990   1.921       .  S
C975        C976   1.405       .  A
C975        H979   1.084       .  S
C976        C977   1.409       .  A
C976        C980   1.488       .  S
C977        C978   1.401       .  A
C977       Br989   1.918       .  S
C978        H981   1.083       .  S
C980        C982   1.407       .  A
C980        C986   1.409       .  A
C982        C983   1.406       .  A
C982        H987   1.083       .  S
C983        C984   1.412       .  A
C983       Br991   1.919       .  S
C984        C985   1.405       .  A
C985        C986   1.395       .  A
C985        H988   1.084       .  S
C986       Br992   1.921       .  S
C993        C994   1.406       .  A
C993        C998   1.403       .  A
C994        C995   1.397       .  A
C994      Br1010   1.918       .  S
C995        C996   1.402       .  A
C995        H999   1.084       .  S
C996        C997   1.408       .  A
C996       C1000   1.477       .  S
C997        C998   1.401       .  A
C997      Br1009   1.917       .  S
C998       H1001   1.083       .  S
C1000      C1002   1.402       .  A
C1000      C1006   1.407       .  A
C1002      C1003   1.400       .  A
C1002      H1007   1.084       .  S
C1003      C1004   1.411       .  A
C1003     Br1011   1.920       .  S
C1004      C1005   1.405       .  A
C1005      C1006   1.400       .  A
C1005      H1008   1.084       .  S
C1006     Br1012   1.918       .  S
C1013      C1014   1.408       .  A
C1013      C1018   1.403       .  A
C1014      C1015   1.401       .  A
C1014     Br1030   1.918       .  S
C1015      C1016   1.405       .  A
C1015      H1019   1.083       .  S
C1016      C1017   1.408       .  A
C1016      C1020   1.483       .  S
C1017      C1018   1.401       .  A
C1017     Br1029   1.917       .  S
C1018      H1021   1.083       .  S
C1020      C1022   1.404       .  A
C1020      C1026   1.409       .  A
C1022      C1023   1.400       .  A
C1022      H1027   1.083       .  S
C1023      C1024   1.405       .  A
C1023     Br1031   1.915       .  S
C1024      C1025   1.404       .  A
C1025      C1026   1.402       .  A
C1025      H1028   1.084       .  S
C1026     Br1032   1.918       .  S
C1033      C1034   1.407       .  A
C1033      C1038   1.404       .  A
C1034      C1035   1.394       .  A
C1034     Br1050   1.919       .  S
C1035      C1036   1.402       .  A
C1035      H1039   1.084       .  S
C1036      C1037   1.406       .  A
C1036      C1040   1.472       .  S
C1037      C1038   1.399       .  A
C1037     Br1049   1.918       .  S
C1038      H1041   1.083       .  S
C1040      C1042   1.400       .  A
C1040      C1046   1.403       .  A
C1042      C1043   1.399       .  A
C1042      H1047   1.084       .  S
C1043      C1044   1.418       .  A
C1043     Br1051   1.922       .  S
C1044      C1045   1.409       .  A
C1045      C1046   1.392       .  A
C1045      H1048   1.083       .  S
C1046     Br1052   1.919       .  S
C1053      C1054   1.408       .  A
C1053      C1058   1.404       .  A
C1054      C1055   1.401       .  A
C1054     Br1070   1.918       .  S
C1055      C1056   1.404       .  A
C1055      H1059   1.083       .  S
C1056      C1057   1.409       .  A
C1056      C1060   1.484       .  S
C1057      C1058   1.403       .  A
C1057     Br1069   1.916       .  S
C1058      H1061   1.083       .  S
C1060      C1062   1.400       .  A
C1060      C1066   1.410       .  A
C1062      C1063   1.400       .  A
C1062      H1067   1.084       .  S
C1063      C1064   1.413       .  A
C1063     Br1071   1.917       .  S
C1064      C1065   1.405       .  A
C1065      C1066   1.406       .  A
C1065      H1068   1.083       .  S
C1066     Br1072   1.917       .  S
C1073      C1074   1.415       .  A
C1073      C1078   1.406       .  A
C1074      C1075   1.401       .  A
C1074     Br1090   1.923       .  S
C1075      C1076   1.401       .  A
C1075      H1079   1.084       .  S
C1076      C1077   1.406       .  A
C1076      C1080   1.478       .  S
C1077      C1078   1.400       .  A
C1077     Br1089   1.918       .  S
C1078      H1081   1.083       .  S
C1080      C1082   1.403       .  A
C1080      C1086   1.408       .  A
C1082      C1083   1.402       .  A
C1082      H1087   1.083       .  S
C1083      C1084   1.409       .  A
C1083     Br1091   1.917       .  S
C1084      C1085   1.401       .  A
C1085      C1086   1.397       .  A
C1085      H1088   1.083       .  S
C1086     Br1092   1.918       .  S
C1093      C1094   1.407       .  A
C1093      C1098   1.403       .  A
C1094      C1095   1.400       .  A
C1094     Br1110   1.918       .  S
C1095      C1096   1.406       .  A
C1095      H1099   1.083       .  S
C1096      C1097   1.412       .  A
C1096      C1100   1.489       .  S
C1097      C1098   1.402       .  A
C1097     Br1109   1.919       .  S
C1098      H1101   1.083       .  S
C1100      C1102   1.406       .  A
C1100      C1106   1.413       .  A
C1102      C1103   1.401       .  A
C1102      H1107   1.083       .  S
C1103      C1104   1.407       .  A
C1103     Br1111   1.919       .  S
C1104      C1105   1.401       .  A
C1105      C1106   1.401       .  A
C1105      H1108   1.084       .  S
C1106     Br1112   1.919       .  S
C1113      C1114   1.410       .  A
C1113      C1118   1.403       .  A
C1114      C1115   1.400       .  A
C1114     Br1130   1.921       .  S
C1115      C1116   1.403       .  A
C1115      H1119   1.083       .  S
C1116      C1117   1.409       .  A
C1116      C1120   1.480       .  S
C1117      C1118   1.398       .  A
C1117     Br1129   1.919       .  S
C1118      H1121   1.084       .  S
C1120      C1122   1.403       .  A
C1120      C1126   1.411       .  A
C1122      C1123   1.401       .  A
C1122      H1127   1.083       .  S
C1123      C1124   1.408       .  A
C1123     Br1131   1.917       .  S
C1124      C1125   1.401       .  A
C1125      C1126   1.398       .  A
C1125      H1128   1.083       .  S
C1126     Br1132   1.921       .  S
C1133      C1134   1.407       .  A
C1133      C1138   1.405       .  A
C1134      C1135   1.400       .  A
C1134     Br1150   1.918       .  S
C1135      C1136   1.404       .  A
C1135      H1139   1.084       .  S
C1136      C1137   1.408       .  A
C1136      C1140   1.484       .  S
C1137      C1138   1.403       .  A
C1137     Br1149   1.916       .  S
C1138      H1141   1.083       .  S
C1140      C1142   1.405       .  A
C1140      C1146   1.409       .  A
C1142      C1143   1.405       .  A
C1142      H1147   1.083       .  S
C1143      C1144   1.409       .  A
C1143     Br1151   1.919       .  S
C1144      C1145   1.401       .  A
C1145      C1146   1.400       .  A
C1145      H1148   1.084       .  S
C1146     Br1152   1.919       .  S
C1153      C1154   1.410       .  A
C1153      C1158   1.402       .  A
C1154      C1155   1.403       .  A
C1154     Br1170   1.918       .  S
C1155      C1156   1.405       .  A
C1155      H1159   1.083       .  S
C1156      C1157   1.411       .  A
C1156      C1160   1.487       .  S
C1157      C1158   1.400       .  A
C1157     Br1169   1.919       .  S
C1158      H1161   1.083       .  S
C1160      C1162   1.400       .  A
C1160      C1166   1.410       .  A
C1162      C1163   1.399       .  A
C1162      H1167   1.084       .  S
C1163      C1164   1.417       .  A
C1163     Br1171   1.920       .  S
C1164      C1165   1.408       .  A
C1165      C1166   1.406       .  A
C1165      H1168   1.083       .  S
C1166     Br1172   1.918       .  S
C1173      C1174   1.408       .  A
C1173      C1178   1.402       .  A
C1174      C1175   1.397       .  A
C1174     Br1190   1.919       .  S
C1175      C1176   1.402       .  A
C1175      H1179   1.084       .  S
C1176      C1177   1.407       .  A
C1176      C1180   1.474       .  S
C1177      C1178   1.399       .  A
C1177     Br1189   1.917       .  S
C1178      H1181   1.083       .  S
C1180      C1182   1.397       .  A
C1180      C1186   1.406       .  A
C1182      C1183   1.394       .  A
C1182      H1187   1.084       .  S
C1183      C1184   1.415       .  A
C1183     Br1191   1.919       .  S
C1184      C1185   1.407       .  A
C1185      C1186   1.403       .  A
C1185      H1188   1.083       .  S
C1186     Br1192   1.917       .  S
C1193      C1194   1.408       .  A
C1193      C1198   1.405       .  A
C1194      C1195   1.398       .  A
C1194     Br1210   1.918       .  S
C1195      C1196   1.403       .  A
C1195      H1199   1.084       .  S
C1196      C1197   1.410       .  A
C1196      C1200   1.482       .  S
C1197      C1198   1.403       .  A
C1197     Br1209   1.918       .  S
C1198      H1201   1.083       .  S
C1200      C1202   1.404       .  A
C1200      C1206   1.407       .  A
C1202      C1203   1.403       .  A
C1202      H1207   1.084       .  S
C1203      C1204   1.415       .  A
C1203     Br1211   1.921       .  S
C1204      C1205   1.407       .  A
C1205      C1206   1.397       .  A
C1205      H1208   1.082       .  S
C1206     Br1212   1.920       .  S
C1213      C1214   1.411       .  A
C1213      C1218   1.404       .  A
C1214      C1215   1.403       .  A
C1214     Br1230   1.916       .  S
C1215      C1216   1.403       .  A
C1215      H1219   1.083       .  S
C1216      C1217   1.411       .  A
C1216      C1220   1.490       .  S
C1217      C1218   1.405       .  A
C1217     Br1229   1.918       .  S
C1218      H1221   1.084       .  S
C1220      C1222   1.406       .  A
C1220      C1226   1.409       .  A
C1222      C1223   1.405       .  A
C1222      H1227   1.083       .  S
C1223      C1224   1.410       .  A
C1223     Br1231   1.918       .  S
C1224      C1225   1.404       .  A
C1225      C1226   1.403       .  A
C1225      H1228   1.083       .  S
C1226     Br1232   1.917       .  S
C1233      C1234   1.414       .  A
C1233      C1238   1.409       .  A
C1234      C1235   1.400       .  A
C1234     Br1250   1.917       .  S
C1235      C1236   1.400       .  A
C1235      H1239   1.084       .  S
C1236      C1237   1.403       .  A
C1236      C1240   1.473       .  S
C1237      C1238   1.395       .  A
C1237     Br1249   1.919       .  S
C1238      H1241   1.084       .  S
C1240      C1242   1.402       .  A
C1240      C1246   1.406       .  A
C1242      C1243   1.396       .  A
C1242      H1247   1.084       .  S
C1243      C1244   1.407       .  A
C1243     Br1251   1.918       .  S
C1244      C1245   1.403       .  A
C1245      C1246   1.399       .  A
C1245      H1248   1.083       .  S
C1246     Br1252   1.917       .  S
C1253      C1254   1.408       .  A
C1253      C1258   1.402       .  A
C1254      C1255   1.401       .  A
C1254     Br1270   1.917       .  S
C1255      C1256   1.404       .  A
C1255      H1259   1.083       .  S
C1256      C1257   1.409       .  A
C1256      C1260   1.480       .  S
C1257      C1258   1.398       .  A
C1257     Br1269   1.919       .  S
C1258      H1261   1.084       .  S
C1260      C1262   1.403       .  A
C1260      C1266   1.408       .  A
C1262      C1263   1.401       .  A
C1262      H1267   1.083       .  S
C1263      C1264   1.409       .  A
C1263     Br1271   1.918       .  S
C1264      C1265   1.403       .  A
C1265      C1266   1.398       .  A
C1265      H1268   1.084       .  S
C1266     Br1272   1.919       .  S
C1273      C1274   1.410       .  A
C1273      C1278   1.404       .  A
C1274      C1275   1.397       .  A
C1274     Br1290   1.920       .  S
C1275      C1276   1.402       .  A
C1275      H1279   1.084       .  S
C1276      C1277   1.405       .  A
C1276      C1280   1.471       .  S
C1277      C1278   1.397       .  A
C1277     Br1289   1.917       .  S
C1278      H1281   1.083       .  S
C1280      C1282   1.401       .  A
C1280      C1286   1.401       .  A
C1282      C1283   1.403       .  A
C1282      H1287   1.083       .  S
C1283      C1284   1.416       .  A
C1283     Br1291   1.920       .  S
C1284      C1285   1.410       .  A
C1285      C1286   1.392       .  A
C1285      H1288   1.083       .  S
C1286     Br1292   1.920       .  S
C1293      C1294   1.406       .  A
C1293      C1298   1.405       .  A
C1294      C1295   1.395       .  A
C1294     Br1310   1.919       .  S
C1295      C1296   1.406       .  A
C1295      H1299   1.084       .  S
C1296      C1297   1.410       .  A
C1296      C1300   1.485       .  S
C1297      C1298   1.401       .  A
C1297     Br1309   1.918       .  S
C1298      H1301   1.084       .  S
C1300      C1302   1.407       .  A
C1300      C1306   1.409       .  A
C1302      C1303   1.405       .  A
C1302      H1307   1.083       .  S
C1303      C1304   1.410       .  A
C1303     Br1311   1.917       .  S
C1304      C1305   1.403       .  A
C1305      C1306   1.393       .  A
C1305      H1308   1.084       .  S
C1306     Br1312   1.922       .  S
C1313      C1314   1.408       .  A
C1313      C1318   1.402       .  A
C1314      C1315   1.399       .  A
C1314     Br1330   1.917       .  S
C1315      C1316   1.401       .  A
C1315      H1319   1.083       .  S
C1316      C1317   1.408       .  A
C1316      C1320   1.474       .  S
C1317      C1318   1.398       .  A
C1317     Br1329   1.919       .  S
C1318      H1321   1.083       .  S
C1320      C1322   1.401       .  A
C1320      C1326   1.407       .  A
C1322      C1323   1.398       .  A
C1322      H1327   1.083       .  S
C1323      C1324   1.407       .  A
C1323     Br1331   1.915       .  S
C1324      C1325   1.404       .  A
C1325      C1326   1.399       .  A
C1325      H1328   1.083       .  S
C1326     Br1332   1.919       .  S
C1333      C1334   1.412       .  A
C1333      C1338   1.403       .  A
C1334      C1335   1.404       .  A
C1334     Br1350   1.919       .  S
C1335      C1336   1.405       .  A
C1335      H1339   1.083       .  S
C1336      C1337   1.414       .  A
C1336      C1340   1.495       .  S
C1337      C1338   1.402       .  A
C1337     Br1349   1.920       .  S
C1338      H1341   1.083       .  S
C1340      C1342   1.404       .  A
C1340      C1346   1.414       .  A
C1342      C1343   1.399       .  A
C1342      H1347   1.084       .  S
C1343      C1344   1.413       .  A
C1343     Br1351   1.922       .  S
C1344      C1345   1.405       .  A
C1345      C1346   1.407       .  A
C1345      H1348   1.083       .  S
C1346     Br1352   1.917       .  S
C1353      C1354   1.407       .  A
C1353      C1358   1.403       .  A
C1354      C1355   1.395       .  A
C1354     Br1370   1.919       .  S
C1355      C1356   1.403       .  A
C1355      H1359   1.084       .  S
C1356      C1357   1.407       .  A
C1356      C1360   1.476       .  S
C1357      C1358   1.400       .  A
C1357     Br1369   1.918       .  S
C1358      H1361   1.083       .  S
C1360      C1362   1.402       .  A
C1360      C1366   1.404       .  A
C1362      C1363   1.401       .  A
C1362      H1367   1.084       .  S
C1363      C1364   1.416       .  A
C1363     Br1371   1.920       .  S
C1364      C1365   1.406       .  A
C1365      C1366   1.395       .  A
C1365      H1368   1.082       .  S
C1366     Br1372   1.919       .  S
C1373      C1374   1.411       .  A
C1373      C1378   1.404       .  A
C1374      C1375   1.404       .  A
C1374     Br1390   1.918       .  S
C1375      C1376   1.404       .  A
C1375      H1379   1.083       .  S
C1376      C1377   1.408       .  A
C1376      C1380   1.482       .  S
C1377      C1378   1.399       .  A
C1377     Br1389   1.920       .  S
C1378      H1381   1.083       .  S
C1380      C1382   1.406       .  A
C1380      C1386   1.404       .  A
C1382      C1383   1.408       .  A
C1382      H1387   1.083       .  S
C1383      C1384   1.412       .  A
C1383     Br1391   1.917       .  S
C1384      C1385   1.408       .  A
C1385      C1386   1.396       .  A
C1385      H1388   1.084       .  S
C1386     Br1392   1.920       .  S
C1393      C1394   1.407       .  A
C1393      C1398   1.405       .  A
C1394      C1395   1.396       .  A
C1394     Br1410   1.918       .  S
C1395      C1396   1.401       .  A
C1395      H1399   1.084       .  S
C1396      C1397   1.407       .  A
C1396      C1400   1.475       .  S
C1397      C1398   1.403       .  A
C1397     Br1409   1.917       .  S
C1398      H1401   1.083       .  S
C1400      C1402   1.400       .  A
C1400      C1406   1.403       .  A
C1402      C1403   1.401       .  A
C1402      H1407   1.084       .  S
C1403      C1404   1.420       .  A
C1403     Br1411   1.922       .  S
C1404      C1405   1.409       .  A
C1405      C1406   1.396       .  A
C1405      H1408   1.083       .  S
C1406     Br1412   1.918       .  S
