geometry optimzed in LAMMPS
_audit_creation_date              2020-11-30 
_audit_creation_method            'lammps2cif' 
_symmetry_space_group_name_H-M    'P1' 
_symmetry_Int_Tables_number       1 
_symmetry_cell_setting            triclinic 
loop_ 
_symmetry_equiv_pos_as_xyz 
  x,y,z 
_cell_length_a                    42.83038524 
_cell_length_b                    43.06175026868124 
_cell_length_c                    36.034393166397116 
_cell_angle_alpha                 90.00200993338511 
_cell_angle_beta                  89.74149363897922 
_cell_angle_gamma                 120.1783432902972 
loop_ 
_atom_site_label 
_atom_site_type_symbol 
_atom_site_fract_x 
_atom_site_fract_y 
_atom_site_fract_z 
_atom_site_charge 
C1          C  0.11796602  0.17123190  0.32884503     0.02200
C2          C  0.08876630  0.14773714  0.30566275     0.02200
C3          C  0.05423330  0.14353393  0.31224618     0.02200
C4          C  0.04877096  0.15891972  0.34475476     0.02200
C5          C  0.07786375  0.18261588  0.36779640     0.02200
C6          C  0.11304721  0.18794508  0.36066410     0.02200
C7          C  0.14080707  0.08618051  0.19411505     0.02200
C8          C  0.14350461  0.05471512  0.19718625     0.02100
C9          C  0.16348877  0.04832209  0.17023935    -0.18400
C10         C  0.18154904  0.07134776  0.14000079     0.02200
C11         C  0.17995040  0.10376978  0.13743852     0.02100
C12         C  0.15895257  0.10969807  0.16410733    -0.18400
H13         H  0.15755221  0.13403491  0.16193994     0.04200
H14         H  0.16566543  0.02458867  0.17381712     0.04200
C15         C  0.40827955  0.05734182  0.19889515     0.02200
C16         C  0.44024184  0.09157951  0.20081807     0.02100
C17         C  0.44601899  0.11749856  0.17350497    -0.18400
C18         C  0.42251924  0.11104111  0.14344887     0.02200
C19         C  0.39032851  0.07639700  0.14123684     0.02100
C20         C  0.38353518  0.05157578  0.17032946    -0.18400
H21         H  0.35799880  0.02654562  0.17065677     0.04200
H22         H  0.47065968  0.14338394  0.17471589     0.04200
C23         C  0.05413530  0.38056972  0.32947054     0.02200
C24         C  0.05793711  0.40869676  0.30588743     0.02200
C25         C  0.08742741  0.44381093  0.31170361     0.02200
C26         C  0.10960990  0.45040023  0.34335180     0.02200
C27         C  0.10592759  0.42223532  0.36665419     0.02200
C28         C  0.07632419  0.38726920  0.36112177     0.02200
C29         C  0.32326839  0.44210601  0.32765602     0.02200
C30         C  0.34772931  0.43835668  0.30401242     0.02200
C31         C  0.35225337  0.40820415  0.30897821     0.02200
C32         C  0.33678564  0.38605354  0.34089034     0.02200
C33         C  0.31462118  0.39173686  0.36617877     0.02200
C34         C  0.30811512  0.42037020  0.35966019     0.02200
C35         C  0.44353422  0.35439735  0.19539382     0.02200
C36         C  0.40875500  0.35075253  0.19781570     0.02100
C37         C  0.38289353  0.33008289  0.17082918    -0.18400
C38         C  0.38920185  0.31262519  0.14104326     0.02200
C39         C  0.42371046  0.31489921  0.13945294    -0.00900
C40         C  0.45004424  0.33648591  0.16617164    -0.18400
H41         H  0.47642519  0.33893238  0.16455753     0.04200
H42         H  0.35651761  0.32748832  0.17327954     0.04200
C43         C  0.28009815  0.49617888  0.99808794     0.02200
C44         C  0.27621755  0.01467892  0.02884555     0.02200
C45         C  0.24424508  0.01683036  0.03173007     0.02200
C46         C  0.21739372  0.50027850  0.00392705     0.02200
C47         C  0.22053575  0.48032300  0.97421758     0.02200
C48         C  0.25273590  0.47895503  0.97090285     0.02200
C49         C  0.28170541  0.28071745  0.00350670     0.02200
C50         C  0.27315171  0.25368660  0.03098172     0.02200
C51         C  0.24029578  0.22035140  0.02784646     0.02200
C52         C  0.21684194  0.21623355  0.99789364     0.02200
C53         C  0.22571009  0.24341778  0.97064318     0.02200
C54         C  0.25824615  0.27657502  0.97381679     0.02200
C55         C  0.50266210  0.21925156  0.00239674     0.02200
C56         C  0.48630583  0.22747407  0.03252549     0.02200
C57         C  0.48636119  0.26058190  0.03100744     0.02200
C58         C  0.50542473  0.28492285  0.00139831     0.02200
C59         C  0.02313240  0.27696386  0.97261367     0.02200
C60         C  0.02281650  0.24402536  0.97367909     0.02200
C61         C  0.15970871  0.04766881  0.66184078     0.02200
C62         C  0.18343488  0.07480583  0.63679040     0.02200
C63         C  0.18802648  0.10958955  0.63967662     0.02200
C64         C  0.17157038  0.11723531  0.66978741     0.02200
C65         C  0.14792133  0.09016514  0.69501011     0.02200
C66         C  0.14369791  0.05543045  0.69233721     0.02200
C67         C  0.07987442  0.18768200  0.86097138     0.02200
C68         C  0.11420145  0.18999254  0.85702479     0.02100
C69         C  0.11915982  0.17215104  0.82660649    -0.18400
C70         C  0.09135221  0.14980224  0.80216401     0.02200
C71         C  0.05750423  0.14805751  0.80552640     0.02100
C72         C  0.05246017  0.16643798  0.83527886    -0.18400
H73         H  0.02607973  0.16382991  0.83864845     0.04200
H74         H  0.14566055  0.17551327  0.82166335     0.04200
C75         C  0.10604147  0.42449131  0.86377272     0.02200
C76         C  0.07504210  0.38961010  0.85988059     0.02100
C77         C  0.05171826  0.38391495  0.82981036    -0.18400
C78         C  0.05652892  0.41122701  0.80495659     0.02200
C79         C  0.08801143  0.44549820  0.80803292     0.02100
C80         C  0.11118793  0.45156118  0.83817495    -0.18400
H81         H  0.13424690  0.47833253  0.84155753     0.04200
H82         H  0.02890275  0.35721753  0.82534515     0.04200
C83         C  0.38086325  0.05412543  0.67534632     0.02200
C84         C  0.40940460  0.05872372  0.69865264     0.02200
C85         C  0.44401095  0.08928545  0.69365301     0.02200
C86         C  0.45020536  0.11160311  0.66222772     0.02200
C87         C  0.42176666  0.10669127  0.63837359     0.02200
C88         C  0.38701539  0.07616902  0.64369163     0.02200
C89         C  0.44495089  0.32703247  0.67514155     0.02200
C90         C  0.44079189  0.35131352  0.69829343     0.02200
C91         C  0.41047612  0.35571858  0.69335916     0.02200
C92         C  0.38792163  0.33943839  0.66220320     0.02200
C93         C  0.39226088  0.31535606  0.63884239     0.02200
C94         C  0.42253851  0.31086456  0.64388425     0.02200
C95         C  0.31276290  0.39160455  0.86270854     0.02200
C96         C  0.30927957  0.42279396  0.85862580     0.02100
C97         C  0.32716081  0.44585207  0.82817401    -0.18400
C98         C  0.35050635  0.44154125  0.80395037     0.02200
C99         C  0.35289172  0.41003063  0.80709917     0.02100
C100        C  0.33486444  0.38650968  0.83695441    -0.18400
H101        H  0.33834554  0.36339824  0.84014132     0.04200
H102        H  0.32304930  0.46830930  0.82293174     0.04200
C103        C  0.01783370  0.27441779  0.47348613     0.02200
C104        C  0.01707206  0.24098065  0.47294415     0.02100
C105        C  0.49518360  0.21481959  0.49973768    -0.18400
C106        C  0.47633197  0.22110285  0.52833755     0.02200
C107        C  0.47919278  0.25545028  0.53000458     0.02100
C108        C  0.49925510  0.28076194  0.50216401    -0.18400
H109        H  0.50040156  0.30648968  0.50273472     0.04200
H110        H  0.49320565  0.18879416  0.49874462     0.04200
C111        C  0.26085550  0.27733523  0.47563794     0.02200
C112        C  0.23140054  0.24172530  0.46862115     0.02100
C113        C  0.22736789  0.21375298  0.49255228    -0.18400
C114        C  0.24866645  0.21957035  0.52431418     0.02200
C115        C  0.27837449  0.25438969  0.53014259     0.02100
C116        C  0.28256630  0.28242906  0.50701124    -0.18400
H117        H  0.30363869  0.30932155  0.51418599     0.04200
H118        H  0.20609682  0.18644684  0.48721435     0.04200
C119        C  0.25557404  0.47856311  0.47407691     0.02200
C120        C  0.22192956  0.47780993  0.47465238     0.02100
C121        C  0.21632363  0.49759821  0.50237911    -0.18400
C122        C  0.24217432  0.01749474  0.52983998     0.02200
C123        C  0.27469493  0.01629191  0.53061831     0.02100
C124        C  0.28047771  0.49689662  0.50268991    -0.18400
H125        H  0.30547911  0.49632698  0.50311703     0.04200
H126        H  0.19108751  0.49770904  0.50248427     0.04200
O127        O  0.04114967  0.06169441  0.01544254    -0.88500
C128        C  0.46897263  0.02958992  0.93082035     0.87600
Mg129      Mg  0.08445075  0.05074916  0.01453931     1.58100
O130        O  0.43851635  0.48285070  0.01536944    -0.88200
O131        O  0.49691632  0.05598132  0.05045290    -0.75500
C132        C  0.50821092  0.37969932  0.98945576     0.92600
O133        O  0.05589282  0.05361971  0.92851314    -0.75300
O134        O  0.03796858  0.40823145  0.98413002    -0.82800
Mg135      Mg  0.03633229  0.08483841  0.96454200     1.58000
C136        C  0.37790958  0.37223079  0.00999341     0.92500
O137        O  0.01988125  0.12102354  0.99244896    -0.81100
H138        H  0.42438326  0.48132804  0.06860848    -0.06500
C139        C  0.46806786  0.43409810  0.93784380     0.87500
O140        O  0.05451676  0.00490436  0.05683762    -0.75600
O141        O  0.48203295  0.04180983  0.96152601    -0.88400
O142        O  0.37758260  0.40068541  0.00205530    -0.81200
C143        C  0.37093286  0.49215466  0.97608024     0.92700
C144        C  0.49067845  0.12063613  0.99911868     0.92500
Mg145      Mg  0.46278377  0.41672267  0.01997057     1.58000
O146        O  0.47850202  0.37918114  0.99266800    -0.81100
O147        O  0.44297854  0.44762551  0.05548972    -0.75400
O148        O  0.40105115  0.02120022  0.97383991    -0.81200
O149        O  0.09275319  0.13042866  0.97274552    -0.82900
O150        O  0.09871311  0.48047489  0.00875611    -0.81200
C151        C  0.43449302  0.47099822  0.04723448     0.86900
O152        O  0.01702150  0.46010511  0.02211901    -0.88400
O153        O  0.45652720  0.43804818  0.96784888    -0.88500
O154        O  0.00087544  0.44261200  0.93391483    -0.75500
Mg155      Mg  0.44966882  0.03649623  0.00972432     1.58000
O156        O  0.36845203  0.46170061  0.97364185    -0.82900
H157        H  0.04788970  0.07457965  0.06930914    -0.06600
O158        O  0.05944749  0.01698875  0.96763074    -0.88200
H159        H  0.07245237  0.01854742  0.91397431    -0.06500
H160        H  0.02053672  0.45522149  0.07695734    -0.06600
C161        C  0.06315168  0.02912754  0.93588290     0.86900
C162        C  0.02975614  0.06487405  0.04589935     0.87500
C163        C  0.03028852  0.47242249  0.05276211     0.87500
H164        H  0.45007753  0.42380103  0.91435453    -0.06600
O165        O  0.44438108  0.49682017  0.92691814    -0.75600
Mg166      Mg  0.04874216  0.46369009  0.97431134     1.58000
H167        H  0.47885083  0.04686397  0.90668361    -0.06600
C168        C  0.12037137  0.12754459  0.97769944     0.92500
O169        O  0.12998739  0.03981679  0.01152749    -0.82900
C170        C  0.12832038  0.50983453  0.01070084     0.92600
O171        O  0.46072592  0.09217800  0.00363262    -0.82900
Mg172      Mg  0.41366267  0.44989211  0.96807532     1.58200
O173        O  0.11880701  0.09748357  0.97670662    -0.81200
O174        O  0.40652402  0.37136177  0.01584340    -0.82900
O175        O  0.38068469  0.22390710  0.36173722    -0.88500
C176        C  0.30979623  0.20301970  0.27722651     0.87600
Mg177      Mg  0.41806781  0.20466897  0.36148280     1.58100
O178        O  0.27238929  0.15322680  0.35916511    -0.88200
O179        O  0.33776543  0.22109448  0.39698804    -0.75500
C180        C  0.32053004  0.03318631  0.31867764     0.92600
O181        O  0.39156632  0.21480221  0.27457596    -0.75300
O182        O  0.35241278  0.05944898  0.31453298    -0.82800
Mg183      Mg  0.37863515  0.25033466  0.31157285     1.58000
C184        C  0.20050168  0.04495557  0.35148749     0.92500
O185        O  0.36923885  0.29252003  0.34093532    -0.81100
H186        H  0.26163752  0.15154996  0.41339976    -0.06500
C187        C  0.29550779  0.10206533  0.27802958     0.87500
O188        O  0.38114933  0.15690541  0.39888325    -0.75600
O189        O  0.32221287  0.21308633  0.30862392    -0.88400
O190        O  0.20441367  0.07452556  0.33993957    -0.81200
C191        C  0.21251007  0.17459780  0.31529255     0.92700
C192        C  0.34195322  0.29514971  0.35020247     0.92500
Mg193      Mg  0.28630058  0.07861271  0.35901258     1.58000
O194        O  0.29404291  0.03689321  0.32818895    -0.81100
O195        O  0.27438578  0.11433803  0.39648655    -0.75400
O196        O  0.24231041  0.20132669  0.32519056    -0.81200
O197        O  0.43789691  0.28918788  0.31469016    -0.82900
O198        O  0.42332710  0.12681207  0.34500920    -0.81200
C199        C  0.26867114  0.14005023  0.39042530     0.86900
O200        O  0.34294439  0.11538813  0.36150680    -0.88400
O201        O  0.28438488  0.10487399  0.30880923    -0.88500
O202        O  0.32736232  0.10781632  0.27346730    -0.75500
Mg203      Mg  0.29129982  0.20931665  0.35750376     1.58000
O204        O  0.20809971  0.14357296  0.31014711    -0.82900
H205        H  0.38711290  0.23342961  0.41627021    -0.06600
O206        O  0.39344473  0.17542212  0.31128592    -0.88200
H207        H  0.40461482  0.17794036  0.25708224    -0.06500
H208        H  0.34339308  0.10694242  0.41599306    -0.06600
C209        C  0.39729252  0.18901446  0.28022683     0.86900
C210        C  0.36962285  0.22686424  0.39247476     0.87500
C211        C  0.35545381  0.12527768  0.39289302     0.87500
H212        H  0.27808279  0.09571780  0.25420830    -0.06600
O213        O  0.28404619  0.17138782  0.27136154    -0.75600
Mg214      Mg  0.37377830  0.11893450  0.31274624     1.58000
H215        H  0.32194348  0.22121181  0.25403281    -0.06600
C216        C  0.46451109  0.28463741  0.32042261     0.92500
O217        O  0.45717014  0.18448424  0.36096398    -0.82900
C218        C  0.45292589  0.15345129  0.35583628     0.92600
O219        O  0.31085048  0.26809481  0.35535595    -0.82900
Mg220      Mg  0.24722023  0.12394230  0.30916029     1.58200
O221        O  0.46105545  0.25497041  0.33123147    -0.81200
O222        O  0.22682939  0.03994091  0.35707681    -0.82900
O223        O  0.12582823  0.26962816  0.69118356    -0.88500
C224        C  0.20140571  0.30642794  0.60803251     0.87600
Mg225      Mg  0.08062219  0.27794360  0.69078474     1.58100
O226        O  0.22867066  0.35433832  0.69209980    -0.88200
O227        O  0.17094564  0.27893113  0.72656775    -0.75500
C228        C  0.14907807  0.44927928  0.65409981     0.92600
O229        O  0.11325485  0.27686945  0.60373407    -0.75300
O230        O  0.12052543  0.41962867  0.64802519    -0.82800
Mg231      Mg  0.13471404  0.24832899  0.64059888     1.58000
C232        C  0.28293261  0.46593758  0.68698827     0.92500
O233        O  0.15322135  0.21380572  0.67013730    -0.81100
H234        H  0.23891720  0.35657237  0.74642141    -0.06500
C235        C  0.19511058  0.39727061  0.61182042     0.87500
O236        O  0.10892035  0.32604985  0.73002813    -0.75600
O237        O  0.18842277  0.29362776  0.63875311    -0.88400
O238        O  0.28560211  0.43915287  0.67668383    -0.81200
C239        C  0.30067927  0.35057815  0.64882967     0.92700
C240        C  0.18301465  0.21586372  0.67818668     0.92500
Mg241      Mg  0.19680234  0.41651612  0.69345562     1.58000
O242        O  0.17841286  0.45142213  0.66437964    -0.81100
O243        O  0.21753746  0.38707286  0.73013136    -0.75400
O244        O  0.27271197  0.32041523  0.65541233    -0.81200
O245        O  0.07845745  0.20045214  0.64366804    -0.82900
O246        O  0.05920185  0.34470582  0.67571613    -0.81200
C247        C  0.22920330  0.36573033  0.72366075     0.86900
O248        O  0.14331076  0.37158312  0.69421108    -0.88400
O249        O  0.20675287  0.39601718  0.64272815    -0.88500
O250        O  0.16174229  0.38540094  0.60649215    -0.75500
Mg251      Mg  0.22028138  0.30119494  0.68768159     1.58000
O252        O  0.29990271  0.37953322  0.64607349    -0.82900
H253        H  0.11929806  0.25707322  0.74518439    -0.06600
O254        O  0.10323624  0.31044973  0.64162415    -0.88200
H255        H  0.09142889  0.30700727  0.58761299    -0.06500
H256        H  0.13892232  0.37717913  0.74874473    -0.06600
C257        C  0.10177219  0.29834086  0.61023144     0.86900
C258        C  0.13761530  0.26771347  0.72178076     0.87500
C259        C  0.13056336  0.35932440  0.72513283     0.87500
H260        H  0.21361768  0.40769158  0.58854744    -0.06600
O261        O  0.22370780  0.33971886  0.60389752    -0.75600
Mg262      Mg  0.11202380  0.36368776  0.64462775     1.58000
H263        H  0.19303596  0.28905055  0.58403624    -0.06600
C264        C  0.04858326  0.19916609  0.64924033     0.92500
O265        O  0.03274967  0.28645680  0.68988328    -0.82900
C266        C  0.03183736  0.31522029  0.68553298     0.92600
O267        O  0.21202583  0.24547275  0.68270588    -0.82900
Mg268      Mg  0.25190160  0.38772019  0.64380596     1.58200
O269        O  0.04628141  0.22633823  0.65872746    -0.81200
O270        O  0.25289195  0.46436380  0.69215319    -0.82900
C271        C  0.47253591  0.31821473  0.68399229    -0.13400
C272        C  0.99825254  0.31445757  0.68828386    -0.15000
C273        C  0.36022326  0.34811569  0.65343485    -0.13400
C274        C  0.33451782  0.35168202  0.64805689    -0.15000
C275        C  0.36343092  0.34930698  0.73850029    -0.13500
C276        C  0.39794913  0.37127563  0.72324191     0.08700
C277        C  0.41882284  0.40668697  0.73648866    -0.13500
C278        C  0.40507046  0.41962528  0.76436968    -0.13500
C279        C  0.36974387  0.39779067  0.77835339     0.08700
C280        C  0.34935248  0.36248067  0.76499819    -0.13500
H281        H  0.34691520  0.32178380  0.72929488     0.12700
H282        H  0.44559430  0.42421470  0.72533113     0.12700
H283        H  0.42179411  0.44668947  0.77464900     0.12700
H284        H  0.32209688  0.34488001  0.77500152     0.12700
C285        C  0.37147088  0.29878303  0.57270799    -0.13500
C286        C  0.36370166  0.29428928  0.61076060     0.08700
C287        C  0.32743358  0.27287834  0.62233616    -0.13500
C288        C  0.29932710  0.25860129  0.59646703    -0.13500
C289        C  0.30709368  0.26377589  0.55837281     0.08700
C290        C  0.34354345  0.28305228  0.54685255    -0.13500
H291        H  0.39896809  0.31555812  0.56299232     0.12700
H292        H  0.32077007  0.26924115  0.65164378     0.12700
H293        H  0.27163697  0.24487500  0.60627872     0.12700
H294        H  0.35027598  0.28765745  0.51759336     0.12700
C295        C  0.47030408  0.31595499  0.60041761    -0.13500
C296        C  0.43504332  0.29489585  0.61432813     0.08700
C297        C  0.41356407  0.25986489  0.60030194    -0.13500
C298        C  0.42723179  0.24665237  0.57261791    -0.13500
C299        C  0.46320560  0.26754837  0.55994880     0.08700
C300        C  0.48446787  0.30219029  0.57473364    -0.13500
H301        H  0.98739487  0.34320232  0.61015059     0.12700
H302        H  0.38628324  0.24291216  0.61049317     0.12700
H303        H  0.40982368  0.22015778  0.56129719     0.12700
H304        H  0.01232967  0.31904615  0.56611253     0.12700
C305        C  0.31540110  0.49976736  0.68921497    -0.13400
C306        C  0.34450718  0.02606225  0.68428767    -0.15000
C307        C  0.48666034  0.13952912  0.65356742    -0.13400
C308        C  0.01590065  0.16542784  0.64829007    -0.15000
C309        C  0.38759675  0.99412189  0.71378364    -0.13500
C310        C  0.40206402  0.02978360  0.72626457     0.08700
C311        C  0.40332208  0.53614509  0.76458108    -0.13500
C312        C  0.38896843  0.50729971  0.78960987    -0.13500
C313        C  0.37166455  0.47141321  0.77697854     0.08700
C314        C  0.37151194  0.46525058  0.73873629    -0.13500
H315        H  0.38606869  0.98856363  0.68431713     0.12700
H316        H  0.41377004  0.56316349  0.77498081     0.12700
H317        H  0.38958968  0.51295375  0.81897735     0.12700
H318        H  0.35756525  0.43818606  0.72784002     0.12700
C319        C  0.34535565  0.02785279  0.60073188    -0.13500
C320        C  0.35865202  0.06290443  0.61407781     0.08700
C321        C  0.34425233  0.08340834  0.59955309    -0.13500
C322        C  0.31736359  0.06896500  0.57199500    -0.13500
C323        C  0.30310183  0.03316362  0.56000161     0.08700
C324        C  0.31742767  0.01291912  0.57512493    -0.13500
H325        H  0.35605975  0.51143586  0.61103596     0.12700
H326        H  0.35391157  0.11050782  0.60928140     0.12700
H327        H  0.30756428  0.08561264  0.56030944     0.12700
H328        H  0.30697213  0.48516846  0.56704735     0.12700
C329        C  0.44505997  0.17120659  0.62089955    -0.13500
C330        C  0.42929724  0.13505911  0.60975253     0.08700
C331        C  0.42547042  0.12743109  0.57166041    -0.13500
C332        C  0.43798019  0.15533906  0.54549645    -0.13500
C333        C  0.45672134  0.19173860  0.55660430     0.08700
C334        C  0.45995730  0.19912718  0.59484155    -0.13500
H335        H  0.44841597  0.17793956  0.65013481     0.12700
H336        H  0.41390860  0.10002107  0.56206629     0.12700
H337        H  0.93446246  0.14838219  0.51634371     0.12700
H338        H  0.47532152  0.22641612  0.60488271     0.12700
C339        C  0.50579639  0.39352764  0.71382325    -0.13500
C340        C  0.46967006  0.37263935  0.72597670     0.08700
C341        C  0.46250977  0.36821041  0.76414607    -0.13500
C342        C  0.99092518  0.38329255  0.78953403    -0.13500
C343        C  0.02721265  0.40180029  0.77737326     0.08700
C344        C  0.03431245  0.40698138  0.73914676    -0.13500
H345        H  0.51199298  0.39708999  0.68440976     0.12700
H346        H  0.43511489  0.35182514  0.77429708     0.12700
H347        H  0.98461590  0.37885136  0.81888344     0.12700
H348        H  0.06178165  0.42008204  0.72873385     0.12700
C349        C  0.48748170  0.08174028  0.73628846    -0.13500
C350        C  0.47211655  0.10196433  0.72346808     0.08700
C351        C  0.98420039  0.13611760  0.73870330    -0.13500
C352        C  0.01192994  0.15055551  0.76463362    -0.13500
C353        C  0.02781922  0.13088428  0.77744885     0.08700
C354        C  0.51466357  0.09583707  0.76358808    -0.13500
H355        H  0.47862003  0.05526685  0.72512189     0.12700
H356        H  0.97257769  0.15213969  0.72976786     0.12700
H357        H  0.02126764  0.17757895  0.77448558     0.12700
H358        H  0.52563827  0.07957359  0.77349700     0.12700
C359        C  0.18373041  0.18318586  0.67939588    -0.13400
C360        C  0.18008880  0.15383622  0.67575788    -0.15000
C361        C  0.15126204  0.01104412  0.65569073    -0.13400
C362        C  0.14808616  0.48183726  0.65225590    -0.15000
C363        C  0.07858622  0.48684727  0.76382070    -0.13500
C364        C  0.10067221  0.47448069  0.77908990     0.08700
C365        C  0.13672554  0.49050212  0.76686978    -0.13500
C366        C  0.15024856  0.01743271  0.74013101    -0.13500
C367        C  0.12804122  0.02867324  0.72345530     0.08700
C368        C  0.09200442  0.01336259  0.73575880    -0.13500
H369        H  0.05095808  0.47575594  0.77322392     0.12700
H370        H  0.15458565  0.48176700  0.77779357     0.12700
H371        H  0.17820768  0.02901555  0.73155641     0.12700
H372        H  0.07431793  0.02165255  0.72347949     0.12700
C373        C  0.10686103  0.11430941  0.71108115    -0.13500
C374        C  0.12763197  0.09913072  0.72299956     0.08700
C375        C  0.13258566  0.09723824  0.76116242    -0.13500
C376        C  0.11820405  0.11129441  0.78664070    -0.13500
C377        C  0.09995067  0.12910830  0.77461477     0.08700
C378        C  0.09424074  0.13020539  0.73643570    -0.13500
H379        H  0.10266183  0.11614788  0.68172539     0.12700
H380        H  0.14885100  0.08629548  0.77124976     0.12700
H381        H  0.12301850  0.10993331  0.81592416     0.12700
H382        H  0.08129596  0.14449568  0.72602498     0.12700
C383        C  0.23697202  0.03491754  0.59560973    -0.13500
C384        C  0.23261931  0.03739305  0.55732846     0.08700
C385        C  0.21518251  0.05597166  0.54526757    -0.13500
C386        C  0.20003025  0.06917259  0.57075449    -0.13500
C387        C  0.20391348  0.06610507  0.60894758     0.08700
C388        C  0.22419189  0.05050443  0.62097482    -0.13500
H389        H  0.24899191  0.01981472  0.60614691     0.12700
H390        H  0.21165024  0.55869854  0.51590823     0.12700
H391        H  0.18419776  0.08056127  0.56058167     0.12700
H392        H  0.22770067  0.04793047  0.65035507     0.12700
C393        C  0.18340248  0.14731364  0.59019943    -0.13500
C394        C  0.20504446  0.13664859  0.60903003     0.08700
C395        C  0.24167926  0.15222911  0.59876663    -0.13500
C396        C  0.25629530  0.17851493  0.57051030    -0.13500
C397        C  0.23468969  0.19023927  0.55288997     0.08700
C398        C  0.19801743  0.17389037  0.56300125    -0.13500
H399        H  0.15504059  0.13546440  0.59723041     0.12700
H400        H  0.25888803  0.14424502  0.61271203     0.12700
H401        H  0.28443504  0.18997060  0.56284498     0.12700
H402        H  0.18053224  0.18219095  0.55020105     0.12700
C403        C  0.49180537  0.15383910  0.99959288    -0.13400
C404        C  0.49572393  0.18325162  0.99921797    -0.15000
C405        C  0.50734189  0.31922528  0.99985100    -0.13400
C406        C  0.50815305  0.34703656  0.99437009    -0.15000
C407        C  0.07477297  0.32209369  0.93085138    -0.13500
C408        C  0.03775065  0.30208916  0.93986005     0.08700
C409        C  0.01372323  0.30887253  0.92002799    -0.13500
C410        C  0.02636541  0.33759317  0.89541318    -0.13500
C411        C  0.06341864  0.35888051  0.88690230     0.08700
C412        C  0.08734714  0.34952164  0.90368630    -0.13500
H413        H  0.09389039  0.31703969  0.94530461     0.12700
H414        H  0.98501887  0.29354352  0.92595214     0.12700
H415        H  0.00675581  0.34361384  0.88374045     0.12700
H416        H  0.11579482  0.36396923  0.89669040     0.12700
C417        C  0.03560857  0.23579094  0.90646004    -0.13500
C418        C  0.04172301  0.23399819  0.94445490     0.08700
C419        C  0.06350368  0.21936818  0.95473135    -0.13500
C420        C  0.07626392  0.20448013  0.92811797    -0.13500
C421        C  0.07022481  0.20651199  0.89011223     0.08700
C422        C  0.05060283  0.22340313  0.87978633    -0.13500
H423        H  0.51815693  0.24560910  0.89718892     0.12700
H424        H  0.06902095  0.21768674  0.98373453     0.12700
H425        H  0.09016947  0.19075072  0.93737446     0.12700
H426        H  0.04530064  0.22549255  0.85080117     0.12700
C427        C  0.18210621  0.18414817  0.99470894    -0.13400
C428        C  0.15374972  0.15845374  0.98667587    -0.15000
C429        C  0.34468530  0.33966126  0.00926218    -0.13400
C430        C  0.31627787  0.31282293  0.00535149    -0.15000
C431        C  0.26850096  0.29905233  0.90736259    -0.13500
C432        C  0.26888877  0.30622312  0.94541178     0.08700
C433        C  0.28125447  0.34213320  0.95612899    -0.13500
C434        C  0.29516274  0.37015325  0.92978378    -0.13500
C435        C  0.29428450  0.36268085  0.89167073     0.08700
C436        C  0.27950878  0.32644969  0.88101889    -0.13500
H437        H  0.26037255  0.27224524  0.89778130     0.12700
H438        H  0.28156319  0.34875704  0.98515739     0.12700
H439        H  0.30723289  0.39761620  0.93933019     0.12700
H440        H  0.27812182  0.31938117  0.85198238     0.12700
C441        C  0.19396934  0.20507847  0.91609087    -0.13500
C442        C  0.20113170  0.23487456  0.93781641     0.08700
C443        C  0.18219549  0.25303832  0.93024909    -0.13500
C444        C  0.15522751  0.24013560  0.90268157    -0.13500
C445        C  0.14498300  0.20745445  0.88424196     0.08700
C446        C  0.16536095  0.19061201  0.89132343    -0.13500
H447        H  0.20864634  0.19100649  0.92076691     0.12700
H448        H  0.18774964  0.27662629  0.94608204     0.12700
H449        H  0.14177817  0.25512443  0.89671881     0.12700
H450        H  0.15867019  0.16529570  0.87850167     0.12700
C451        C  0.31331812  0.49585688  0.99272340    -0.13400
C452        C  0.33954175  0.49421529  0.98418302    -0.15000
C453        C  0.18651699  0.50504122  0.00599897    -0.13400
C454        C  0.16062515  0.50841770  0.00987112    -0.15000
C455        C  0.12677268  0.42766626  0.93047939    -0.13500
C456        C  0.13476736  0.43486932  0.89249633     0.08700
C457        C  0.17127952  0.45585536  0.88172167    -0.13500
C458        C  0.19875581  0.47066498  0.90802051    -0.13500
C459        C  0.19101619  0.46294144  0.94587618     0.08700
C460        C  0.15467930  0.44037710  0.95667627    -0.13500
H461        H  0.09903018  0.41265601  0.93999529     0.12700
H462        H  0.17857197  0.46205145  0.85273068     0.12700
H463        H  0.22596777  0.98887738  0.89868328     0.12700
H464        H  0.14775588  0.43372645  0.98565876     0.12700
C465        C  0.25787391  0.41210387  0.90420834    -0.13500
C466        C  0.29059689  0.43523134  0.88549411     0.08700
C467        C  0.30616317  0.47249186  0.89162927    -0.13500
C468        C  0.29038570  0.48607680  0.91541698    -0.13500
C469        C  0.26078467  0.46305060  0.93758971     0.08700
C470        C  0.24378823  0.42580722  0.93107332    -0.13500
H471        H  0.24380782  0.38350270  0.89904665     0.12700
H472        H  0.33158978  0.49171582  0.87890367     0.12700
H473        H  0.30372528  0.01495059  0.91939255     0.12700
H474        H  0.22042537  0.40742136  0.94739143     0.12700
C475        C  0.45659455  0.28188872  0.12302722    -0.13500
C476        C  0.43495793  0.29633888  0.11152632     0.08700
C477        C  0.42842332  0.29641139  0.07337159    -0.13500
C478        C  0.44271715  0.28215279  0.04782086    -0.13500
C479        C  0.46670778  0.27050183  0.05920235     0.08700
C480        C  0.47333221  0.27055325  0.09726371    -0.13500
H481        H  0.46191581  0.28072519  0.15219089     0.12700
H482        H  0.41304312  0.30823895  0.06307069     0.12700
H483        H  0.43640933  0.28187219  0.01871468     0.12700
H484        H  0.99171562  0.26206139  0.10713464     0.12700
C485        C  0.33798414  0.31090508  0.10543418    -0.13500
C486        C  0.35865082  0.29447998  0.11324436     0.08700
C487        C  0.34743042  0.26070231  0.09668363    -0.13500
C488        C  0.31855769  0.24582162  0.07092361    -0.13500
C489        C  0.29866425  0.26310866  0.06343154     0.08700
C490        C  0.30738608  0.29439148  0.08329722    -0.13500
H491        H  0.34553670  0.33719571  0.11626434     0.12700
H492        H  0.36130862  0.24618292  0.10293927     0.12700
H493        H  0.31229809  0.22138661  0.05637002     0.12700
H494        H  0.29245106  0.30820223  0.07859829     0.12700
C495        C  0.31541239  0.47036833  0.32004686    -0.13400
C496        C  0.31486227  0.99777652  0.31619136    -0.15000
C497        C  0.34533918  0.32986119  0.35146185    -0.13400
C498        C  0.34334084  0.35657381  0.34761005    -0.15000
C499        C  0.25672387  0.41471362  0.40070674    -0.13500
C500        C  0.29320002  0.43333364  0.38960830     0.08700
C501        C  0.31632601  0.46680004  0.40563748    -0.13500
C502        C  0.30337482  0.48160496  0.43150629    -0.13500
C503        C  0.26741978  0.46229956  0.44439050     0.08700
C504        C  0.24446974  0.42806150  0.42936129    -0.13500
H505        H  0.23741936  0.39043300  0.38688492     0.12700
H506        H  0.34433422  0.98218089  0.39693368     0.12700
H507        H  0.32178662  0.00845105  0.44145257     0.12700
H508        H  0.21683315  0.41206013  0.43891000     0.12700
C509        C  0.32316131  0.36409367  0.42335991    -0.13500
C510        C  0.29949133  0.36766228  0.39945368     0.08700
C511        C  0.26220119  0.34367739  0.40371710    -0.13500
C512        C  0.24912831  0.31728400  0.43163840    -0.13500
C513        C  0.27303537  0.30980739  0.45099118     0.08700
C514        C  0.31044536  0.33440717  0.44678319    -0.13500
H515        H  0.35204854  0.38205037  0.42080135     0.12700
H516        H  0.24317881  0.34383794  0.38432738     0.12700
H517        H  0.22030556  0.30123295  0.43605130     0.12700
H518        H  0.33048032  0.33028916  0.46053411     0.12700
C519        C  0.40378686  0.41709147  0.26572497    -0.13500
C520        C  0.36826848  0.39598753  0.27934255     0.08700
C521        C  0.34723555  0.36080101  0.26612461    -0.13500
C522        C  0.36173523  0.34600457  0.24231672    -0.13500
C523        C  0.39670789  0.36690512  0.22751757     0.08700
C524        C  0.41753658  0.40296707  0.23912761    -0.13500
H525        H  0.42072111  0.44431733  0.27548841     0.12700
H526        H  0.31960714  0.34402668  0.27555142     0.12700
H527        H  0.34500841  0.31798654  0.23490035     0.12700
H528        H  0.44431229  0.42008866  0.22778889     0.12700
C529        C  0.13755129  0.48670280  0.35162288    -0.13400
C530        C  0.16490539  0.01505676  0.35485767    -0.15000
C531        C  0.49979698  0.31522726  0.31790603    -0.13400
C532        C  0.02649250  0.34409385  0.32134973    -0.15000
C533        C  0.02868664  0.34547345  0.40479767    -0.13500
C534        C  0.06381308  0.35910830  0.39084624     0.08700
C535        C  0.08497798  0.34516605  0.40480044    -0.13500
C536        C  0.07086446  0.31802667  0.43221507    -0.13500
C537        C  0.03474063  0.30304361  0.44433213     0.08700
C538        C  0.01404693  0.31724160  0.43001670    -0.13500
H539        H  0.01198199  0.35613317  0.39520392     0.12700
H540        H  0.11225189  0.35529448  0.39467490     0.12700
H541        H  0.08786092  0.30841225  0.44347876     0.12700
H542        H  0.98622899  0.30657404  0.43864877     0.12700
C543        C  0.15579443  0.43988007  0.45866087    -0.13500
C544        C  0.19225261  0.45862607  0.44684093     0.08700
C545        C  0.19938318  0.46175909  0.40852587    -0.13500
C546        C  0.17107977  0.44633775  0.38298946    -0.13500
C547        C  0.13480127  0.43024575  0.39478944     0.08700
C548        C  0.12745949  0.42674567  0.43299896    -0.13500
H549        H  0.14916910  0.43675681  0.48796504     0.12700
H550        H  0.22679743  0.47703981  0.39813881     0.12700
H551        H  0.17754955  0.44948592  0.35363191     0.12700
H552        H  0.09993865  0.41495298  0.44301990     0.12700
C553        C  0.49287884  0.38390019  0.28820433    -0.13500
C554        C  0.02939467  0.40055789  0.27716790     0.08700
C555        C  0.03741720  0.40535638  0.23906824    -0.13500
C556        C  0.00956629  0.39291419  0.21280241    -0.13500
C557        C  0.47286609  0.37353390  0.22377378     0.08700
C558        C  0.46508340  0.36937253  0.26201873    -0.13500
H559        H  0.48580211  0.37985300  0.31741079     0.12700
H560        H  0.06513951  0.41775287  0.22953530     0.12700
H561        H  0.01683107  0.39715763  0.18367346     0.12700
H562        H  0.43756181  0.35362038  0.27193839     0.12700
C563        C  0.47157135  0.15289375  0.10011292    -0.13500
C564        C  0.43667438  0.14045507  0.11448276     0.08700
C565        C  0.42084062  0.16171098  0.10712554    -0.13500
C566        C  0.43548216  0.18903887  0.07985711    -0.13500
C567        C  0.46992844  0.20047959  0.06440875     0.08700
C568        C  0.48874742  0.18378218  0.07799443    -0.13500
H569        H  0.48635017  0.13945011  0.10736626     0.12700
H570        H  0.39767275  0.15796206  0.12285739     0.12700
H571        H  0.42007537  0.20148774  0.07160678     0.12700
H572        H  0.01634413  0.19323170  0.06933426     0.12700
C573        C  0.35010387  0.08259443  0.09252829    -0.13500
C574        C  0.36358835  0.06239568  0.10952948     0.08700
C575        C  0.34771944  0.02590510  0.09892807    -0.13500
C576        C  0.31828151  0.01013562  0.07465948    -0.13500
C577        C  0.30564694  0.03094047  0.05737690     0.08700
C578        C  0.32341307  0.06773456  0.06521968    -0.13500
H579        H  0.35831554  0.10921642  0.10089322     0.12700
H580        H  0.35727480  0.00895988  0.11039511     0.12700
H581        H  0.30582946  0.48162973  0.06886363     0.12700
H582        H  0.31697406  0.08532932  0.05017009     0.12700
C583        C  0.38975407  0.00351612  0.28898335    -0.13500
C584        C  0.36946405  0.46785468  0.27644526     0.08700
C585        C  0.36585532  0.46189105  0.23805926    -0.13500
C586        C  0.38087659  0.49101365  0.21316979    -0.13500
C587        C  0.39830207  0.02686190  0.22581398     0.08700
C588        C  0.40265026  0.03257375  0.26429186    -0.13500
H589        H  0.39297985  0.00897997  0.31849524     0.12700
H590        H  0.35022846  0.43484818  0.22733318     0.12700
H591        H  0.37737780  0.48534880  0.18372527     0.12700
H592        H  0.41466897  0.05940491  0.27559959     0.12700
C593        C  0.21662074  0.16931935  0.12019644    -0.13500
C594        C  0.19936683  0.13303376  0.10895322     0.08700
C595        C  0.19813658  0.12594098  0.07073808    -0.13500
C596        C  0.21438817  0.15426499  0.04490904    -0.13500
C597        C  0.22908837  0.19044926  0.05605720     0.08700
C598        C  0.23003863  0.19736738  0.09424476    -0.13500
H599        H  0.21839176  0.17607555  0.14935363     0.12700
H600        H  0.18445005  0.09853351  0.06076971     0.12700
H601        H  0.21395359  0.14770426  0.01584714     0.12700
H602        H  0.24013002  0.22443287  0.10423239     0.12700
C603        C  0.18713351  0.02178150  0.10809751    -0.13500
C604        C  0.20095602  0.05903207  0.11354850     0.08700
C605        C  0.23337602  0.08265874  0.09486399    -0.13500
C606        C  0.24847788  0.06958782  0.06865518    -0.13500
C607        C  0.23528064  0.03242824  0.06482811     0.08700
C608        C  0.20525198  0.00893244  0.08636285    -0.13500
H609        H  0.16148786  0.00190167  0.11985023     0.12700
H610        H  0.24641458  0.11131557  0.09908905     0.12700
H611        H  0.26907129  0.08868201  0.05019319     0.12700
H612        H  0.19317837  0.98016135  0.08284546     0.12700
C613        C  0.09166305  0.01228933  0.24028390    -0.13500
C614        C  0.12782454  0.02773933  0.22810788     0.08700
C615        C  0.14948737  0.01530230  0.24387733    -0.13500
C616        C  0.13530496  0.48715779  0.26910863    -0.13500
C617        C  0.09980611  0.47239084  0.28240337     0.08700
C618        C  0.07808650  0.48554757  0.26809230    -0.13500
H619        H  0.07408351  0.02090471  0.22839759     0.12700
H620        H  0.17760685  0.02689287  0.23596807     0.12700
H621        H  0.15258584  0.47730550  0.27905492     0.12700
H622        H  0.05063132  0.47480131  0.27793144     0.12700
C623        C  0.15344047  0.17739181  0.31979297    -0.13400
C624        C  0.18162491  0.17859486  0.31418853    -0.15000
C625        C  0.48392363  0.14943567  0.35848010    -0.13400
C626        C  0.01263641  0.15125043  0.35412125    -0.15000
C627        C  0.05919580  0.22788653  0.38381050    -0.13500
C628        C  0.07046783  0.20395454  0.39607919     0.08700
C629        C  0.06524204  0.19413758  0.43365974    -0.13500
C630        C  0.05177150  0.20943847  0.45853885    -0.13500
C631        C  0.03804915  0.23128624  0.44612614     0.08700
C632        C  0.04162387  0.23989402  0.40802608    -0.13500
H633        H  0.06078143  0.23440990  0.35457330     0.12700
H634        H  0.06870117  0.17264791  0.44390410     0.12700
H635        H  0.04988540  0.20196253  0.48748769     0.12700
H636        H  0.02959107  0.25453608  0.39638042     0.12700
C637        C  0.13833398  0.19177889  0.42427671    -0.13500
C638        C  0.14338423  0.20604858  0.38844645     0.08700
C639        C  0.17888665  0.23257326  0.37821661    -0.13500
C640        C  0.20804561  0.24294697  0.40285521    -0.13500
C641        C  0.20183007  0.23138344  0.44017719     0.08700
C642        C  0.16598262  0.20614323  0.45037474    -0.13500
H643        H  0.11357033  0.16783588  0.43167288     0.12700
H644        H  0.18448130  0.24350183  0.35034969     0.12700
H645        H  0.23527193  0.26016143  0.39269994     0.12700
H646        H  0.15939333  0.19560711  0.47836761     0.12700
C647        C  0.51052175  0.09365829  0.26852792    -0.13500
C648        C  0.02517612  0.12850680  0.28327821     0.08700
C649        C  0.01146694  0.15019535  0.27082475    -0.13500
C650        C  0.98294320  0.13718265  0.24590134    -0.13500
C651        C  0.46851382  0.10274961  0.23035352     0.08700
C652        C  0.48310819  0.08126213  0.24153172    -0.13500
H653        H  0.52043325  0.07623033  0.27759026     0.12700
H654        H  0.02248196  0.17734017  0.28114134     0.12700
H655        H  0.97238549  0.15449207  0.23839639     0.12700
H656        H  0.47331588  0.05495310  0.22949769     0.12700
C657        C  0.09202347  0.13127990  0.23839548    -0.13500
C658        C  0.09531021  0.12659523  0.27644041     0.08700
C659        C  0.11029759  0.10541989  0.28708270    -0.13500
C660        C  0.12533078  0.09279278  0.26079645    -0.13500
C661        C  0.12238816  0.09740557  0.22256869     0.08700
C662        C  0.10439826  0.11596016  0.21184077    -0.13500
H663        H  0.08093009  0.14766666  0.22919785     0.12700
H664        H  0.11332606  0.10141392  0.31623871     0.12700
H665        H  0.14051190  0.08069294  0.27082156     0.12700
H666        H  0.10107979  0.11989317  0.18277746     0.12700
C667        C  0.11800744  0.67128344  0.32876105     0.02200
C668        C  0.08880197  0.64780718  0.30557500     0.02200
C669        C  0.05427720  0.64362114  0.31217522     0.02200
C670        C  0.04882202  0.65898493  0.34470577     0.02200
C671        C  0.07792223  0.68267600  0.36774189     0.02200
C672        C  0.11309809  0.68799170  0.36059057     0.02200
C673        C  0.14079412  0.58616664  0.19406229     0.02200
C674        C  0.14350490  0.55470710  0.19714367     0.02100
C675        C  0.16348963  0.54831573  0.17019294    -0.18400
C676        C  0.18153625  0.57133663  0.13994403     0.02200
C677        C  0.17993603  0.60375771  0.13738298     0.02100
C678        C  0.15893833  0.60968294  0.16405287    -0.18400
H679        H  0.15753648  0.63401881  0.16188356     0.04200
H680        H  0.16567435  0.52458656  0.17377182     0.04200
C681        C  0.40819148  0.55742106  0.19903493     0.02200
C682        C  0.44013306  0.59167894  0.20092969     0.02100
C683        C  0.44586378  0.61757978  0.17360940    -0.18400
C684        C  0.42235699  0.61106750  0.14354619     0.02200
C685        C  0.39019209  0.57640249  0.14136449     0.02100
C686        C  0.38342387  0.55161469  0.17048236    -0.18400
H687        H  0.35790198  0.52656928  0.17082286     0.04200
H688        H  0.47048853  0.64347993  0.17479692     0.04200
C689        C  0.05410873  0.88057946  0.32951569     0.02200
C690        C  0.05790575  0.90868623  0.30590763     0.02200
C691        C  0.08739459  0.94380427  0.31170767     0.02200
C692        C  0.10958516  0.95042143  0.34335763     0.02200
C693        C  0.10589867  0.92227385  0.36669271     0.02200
C694        C  0.07629521  0.88730319  0.36117475     0.02200
C695        C  0.32320084  0.94208649  0.32756345     0.02200
C696        C  0.34763511  0.93830308  0.30390684     0.02200
C697        C  0.35214575  0.90814383  0.30887827     0.02200
C698        C  0.33667388  0.88599873  0.34079225     0.02200
C699        C  0.31453924  0.89171352  0.36609929     0.02200
C700        C  0.30805323  0.92036604  0.35958343     0.02200
C701        C  0.44350664  0.85434183  0.19535908     0.02200
C702        C  0.40874714  0.85075212  0.19775502     0.02100
C703        C  0.38289574  0.83014090  0.17073380    -0.18400
C704        C  0.38917762  0.81266073  0.14095226     0.02200
C705        C  0.42366094  0.81487685  0.13938445    -0.00900
C706        C  0.44999398  0.83641773  0.16612982    -0.18400
H707        H  0.47635569  0.83881918  0.16452877     0.04200
H708        H  0.35653970  0.82759413  0.17317025     0.04200
C709        C  0.28016610  0.99636714  0.99798187     0.02200
C710        C  0.27616157  0.51454470  0.02890728     0.02200
C711        C  0.24423906  0.51679613  0.03169613     0.02200
C712        C  0.21734918  0.00025211  0.00401223     0.02200
C713        C  0.22051054  0.98035159  0.97425099     0.02200
C714        C  0.25276260  0.97908149  0.97084572     0.02200
C715        C  0.28158263  0.78073215  0.00346359     0.02200
C716        C  0.27305102  0.75370347  0.03093861     0.02200
C717        C  0.24020361  0.72035087  0.02780153     0.02200
C718        C  0.21674136  0.71621696  0.99784738     0.02200
C719        C  0.22560880  0.74340360  0.97059840     0.02200
C720        C  0.25812908  0.77657128  0.97376527     0.02200
C721        C  0.50249480  0.71912854  0.00232151     0.02200
C722        C  0.48611932  0.72734863  0.03243221     0.02200
C723        C  0.48618578  0.76046082  0.03090590     0.02200
C724        C  0.50526754  0.78480160  0.00130310     0.02200
C725        C  0.02300826  0.77685233  0.97254805     0.02200
C726        C  0.02268192  0.74390852  0.97361800     0.02200
C727        C  0.15969562  0.54766957  0.66180870     0.02200
C728        C  0.18342068  0.57479845  0.63674976     0.02200
C729        C  0.18802670  0.60958899  0.63963275     0.02200
C730        C  0.17157200  0.61724284  0.66973945     0.02200
C731        C  0.14792341  0.59017783  0.69496600     0.02200
C732        C  0.14369348  0.55544317  0.69230019     0.02200
C733        C  0.07981671  0.68761007  0.86094947     0.02200
C734        C  0.11415255  0.68994969  0.85698146     0.02100
C735        C  0.11912370  0.67212800  0.82655458    -0.18400
C736        C  0.09131564  0.64976569  0.80212445     0.02200
C737        C  0.05746210  0.64800286  0.80550476     0.02100
C738        C  0.05240387  0.66635996  0.83526711    -0.18400
H739        H  0.02601913  0.66374177  0.83864293     0.04200
H740        H  0.14563276  0.67551704  0.82159419     0.04200
C741        C  0.10595035  0.92451802  0.86387119     0.02200
C742        C  0.07495402  0.88963184  0.85996330     0.02100
C743        C  0.05164071  0.88394916  0.82988276    -0.18400
C744        C  0.05646245  0.91126553  0.80503172     0.02200
C745        C  0.08794211  0.94553189  0.80812108     0.02100
C746        C  0.11110368  0.95159396  0.83827465    -0.18400
H747        H  0.13416653  0.97836409  0.84165224     0.04200
H748        H  0.02883788  0.85725218  0.82538461     0.04200
C749        C  0.38079597  0.55412667  0.67542618     0.02200
C750        C  0.40934862  0.55874771  0.69872439     0.02200
C751        C  0.44395258  0.58929915  0.69369015     0.02200
C752        C  0.45013895  0.61159679  0.66225084     0.02200
C753        C  0.42169189  0.60665297  0.63839322     0.02200
C754        C  0.38693868  0.57613794  0.64374377     0.02200
C755        C  0.44499992  0.82709153  0.67507062     0.02200
C756        C  0.44082975  0.85136371  0.69823290     0.02200
C757        C  0.41050806  0.85576171  0.69329782     0.02200
C758        C  0.38796587  0.83949160  0.66213176     0.02200
C759        C  0.39230581  0.81540669  0.63877433     0.02200
C760        C  0.42257662  0.81090407  0.64382053     0.02200
C761        C  0.31261694  0.89156983  0.86260182     0.02200
C762        C  0.30916810  0.92278223  0.85852022     0.02100
C763        C  0.32706227  0.94582727  0.82806081    -0.18400
C764        C  0.35039961  0.94149208  0.80384363     0.02200
C765        C  0.35276805  0.90997289  0.80700214     0.02100
C766        C  0.33470826  0.88645142  0.83684912    -0.18400
H767        H  0.33817302  0.86333125  0.84004514     0.04200
H768        H  0.32297713  0.96829978  0.82281207     0.04200
C769        C  0.01771449  0.77433425  0.47341077     0.02200
C770        C  0.01703167  0.74093461  0.47289189     0.02100
C771        C  0.49516996  0.71475928  0.49969132    -0.18400
C772        C  0.47626690  0.72100123  0.52827437     0.02200
C773        C  0.47905926  0.75532130  0.52991896     0.02100
C774        C  0.49908113  0.78063039  0.50206529    -0.18400
H775        H  0.50018329  0.80633747  0.50263641     0.04200
H776        H  0.49326261  0.68876393  0.49871981     0.04200
C777        C  0.26088028  0.77733021  0.47557444     0.02200
C778        C  0.23143310  0.74171337  0.46856405     0.02100
C779        C  0.22741639  0.71374960  0.49250054    -0.18400
C780        C  0.24870818  0.71958044  0.52427073     0.02200
C781        C  0.27841532  0.75440454  0.53008478     0.02100
C782        C  0.28260470  0.78243488  0.50693841    -0.18400
H783        H  0.30368262  0.80933067  0.51409601     0.04200
H784        H  0.20616566  0.68643599  0.48715925     0.04200
C785        C  0.25558604  0.97861752  0.47404865     0.02200
C786        C  0.22192871  0.97783925  0.47467177     0.02100
C787        C  0.21633079  0.99761414  0.50242143    -0.18400
C788        C  0.24214454  0.51745824  0.52982269     0.02200
C789        C  0.27464876  0.51622842  0.53064591     0.02100
C790        C  0.28051615  0.99697356  0.50263629    -0.18400
H791        H  0.30553025  0.99642760  0.50302542     0.04200
H792        H  0.19108520  0.99770611  0.50255940     0.04200
O793        O  0.04120428  0.56174747  0.01504372    -0.88500
C794        C  0.46879834  0.52947944  0.93064465     0.87600
Mg795      Mg  0.08454369  0.55087161  0.01404648     1.58100
O796        O  0.43838083  0.98288494  0.01544300    -0.88200
O797        O  0.49707728  0.55603449  0.05021961    -0.75500
C798        C  0.50802690  0.87959253  0.98962101     0.92600
O799        O  0.05578377  0.55359548  0.92810895    -0.75300
O800        O  0.03777834  0.90812074  0.98425144    -0.82800
Mg801      Mg  0.03625370  0.58483341  0.96417201     1.58000
C802        C  0.37773121  0.87228415  0.00999015     0.92500
O803        O  0.01976535  0.62098218  0.99208600    -0.81100
H804        H  0.42414404  0.98133921  0.06864757    -0.06500
C805        C  0.46805838  0.93414247  0.93801595     0.87500
O806        O  0.05473803  0.50508317  0.05643930    -0.75600
O807        O  0.48194823  0.54175623  0.96130664    -0.88400
O808        O  0.37743147  0.90073039  0.00193373    -0.81200
C809        C  0.37100791  0.99235712  0.97593196     0.92700
C810        C  0.49057108  0.62054956  0.99894994     0.92500
Mg811      Mg  0.46259189  0.91669669  0.02018334     1.58000
O812        O  0.47834196  0.87908587  0.99309776    -0.81100
O813        O  0.44275708  0.94763746  0.05559714    -0.75400
O814        O  0.40094402  0.52103144  0.97396335    -0.81200
O815        O  0.09269351  0.63049713  0.97233278    -0.82900
O816        O  0.09854251  0.98027822  0.00917436    -0.81200
C817        C  0.43428964  0.97101434  0.04730453     0.86900
O818        O  0.01684851  0.96000056  0.02241161    -0.88400
O819        O  0.45645592  0.93804838  0.96800164    -0.88500
O820        O  0.00087510  0.94267544  0.93414497    -0.75500
Mg821      Mg  0.44970779  0.53642898  0.00964713     1.58000
O822        O  0.36847251  0.96187683  0.97350912    -0.82900
H823        H  0.04813552  0.57475962  0.06887453    -0.06600
O824        O  0.05946425  0.51702083  0.96721020    -0.88200
H825        H  0.07233054  0.51852396  0.91351613    -0.06500
H826        H  0.02024620  0.95501729  0.07725075    -0.06600
C827        C  0.06307447  0.52911824  0.93545261     0.86900
C828        C  0.02991372  0.56497698  0.04553875     0.87500
C829        C  0.03005996  0.97225798  0.05308787     0.87500
H830        H  0.45011732  0.92388750  0.91448543    -0.06600
O831        O  0.44453476  0.99694976  0.92701515    -0.75600
Mg832      Mg  0.04864550  0.96362851  0.97463371     1.58000
H833        H  0.47857877  0.54671965  0.90647734    -0.06600
C834        C  0.12030380  0.62759299  0.97727342     0.92500
O835        O  0.13012556  0.54002077  0.01099507    -0.82900
C836        C  0.12816498  0.00962256  0.01113669     0.92600
O837        O  0.46066131  0.59207180  0.00359037    -0.82900
Mg838      Mg  0.41364541  0.94998166  0.96808354     1.58200
O839        O  0.11872316  0.59753138  0.97606855    -0.81200
O840        O  0.40632050  0.87140396  0.01597139    -0.82900
O841        O  0.38069874  0.72390856  0.36177907    -0.88500
C842        C  0.30979796  0.70289410  0.27724360     0.87600
Mg843      Mg  0.41808089  0.70466326  0.36155236     1.58100
O844        O  0.27238379  0.65319926  0.35923427    -0.88200
O845        O  0.33775985  0.72109296  0.39700101    -0.75500
C846        C  0.32051733  0.53315358  0.31885528     0.92600
O847        O  0.39160626  0.71475503  0.27462188    -0.75300
O848        O  0.35238809  0.55942078  0.31465484    -0.82800
Mg849      Mg  0.37863820  0.75029061  0.31157336     1.58000
C850        C  0.20048575  0.54492787  0.35166461     0.92500
O851        O  0.36920982  0.79250336  0.34085218    -0.81100
H852        H  0.26162650  0.65158311  0.41346174    -0.06500
C853        C  0.29546090  0.60196630  0.27818394     0.87500
O854        O  0.38117304  0.65692151  0.39898434    -0.75600
O855        O  0.32221656  0.71301076  0.30863246    -0.88400
O856        O  0.20439548  0.57449181  0.34010040    -0.81200
C857        C  0.21251312  0.67455168  0.31528332     0.92700
C858        C  0.34191330  0.79511836  0.35011333     0.92500
Mg859      Mg  0.28629064  0.57859074  0.35920338     1.58000
O860        O  0.29404210  0.53684795  0.32844988    -0.81100
O861        O  0.27437832  0.61435367  0.39662176    -0.75400
O862        O  0.24232530  0.70128267  0.32514709    -0.81200
O863        O  0.43789530  0.78915876  0.31470138    -0.82900
O864        O  0.42334062  0.62679105  0.34509096    -0.81200
C865        C  0.26866249  0.64005787  0.39051304     0.86900
O866        O  0.34294335  0.61537298  0.36165038    -0.88400
O867        O  0.28434139  0.60478212  0.30896200    -0.88500
O868        O  0.32732661  0.60775407  0.27361197    -0.75500
Mg869      Mg  0.29129713  0.70928483  0.35749813     1.58000
O870        O  0.20808005  0.64350979  0.31020296    -0.82900
H871        H  0.38710486  0.73344881  0.41630994    -0.06600
O872        O  0.39343742  0.67538564  0.31138075    -0.88200
H873        H  0.40467020  0.67788500  0.25719461    -0.06500
H874        H  0.34342357  0.60697457  0.41614324    -0.06600
C875        C  0.39732244  0.68896705  0.28031195     0.86900
C876        C  0.36962259  0.72687113  0.39250639     0.87500
C877        C  0.35547181  0.62528953  0.39302547     0.87500
H878        H  0.27802488  0.59559261  0.25436833    -0.06600
O879        O  0.28403318  0.67125923  0.27142225    -0.75600
Mg880      Mg  0.37376044  0.61889936  0.31286824     1.58000
H881        H  0.32195196  0.72104565  0.25402092    -0.06600
C882        C  0.46451400  0.78462072  0.32045949     0.92500
O883        O  0.45718042  0.68446827  0.36103185    -0.82900
C884        C  0.45294476  0.65343892  0.35589683     0.92600
O885        O  0.31082630  0.76805215  0.35529440    -0.82900
Mg886      Mg  0.24719358  0.62386374  0.30926897     1.58200
O887        O  0.46106558  0.75495945  0.33128207    -0.81200
O888        O  0.22681397  0.53991947  0.35728633    -0.82900
O889        O  0.12585168  0.76965730  0.69113076    -0.88500
C890        C  0.20136291  0.80637443  0.60790105     0.87600
Mg891      Mg  0.08064534  0.77797714  0.69073719     1.58100
O892        O  0.22871915  0.85437047  0.69190795    -0.88200
O893        O  0.17101982  0.77901131  0.72646521    -0.75500
C894        C  0.14910298  0.94929180  0.65397456     0.92600
O895        O  0.11319716  0.77680580  0.60367954    -0.75300
O896        O  0.12055121  0.91963860  0.64790571    -0.82800
Mg897      Mg  0.13468585  0.74830074  0.64055950     1.58000
C898        C  0.28297237  0.96595375  0.68676083     0.92500
O899        O  0.15321853  0.71381013  0.67012796    -0.81100
H900        H  0.23903036  0.85664892  0.74621662    -0.06500
C901        C  0.19508737  0.89723282  0.61162541     0.87500
O902        O  0.10897543  0.82611840  0.72993362    -0.75600
O903        O  0.18840261  0.79360384  0.63863740    -0.88400
O904        O  0.28563039  0.93917838  0.67639582    -0.81200
C905        C  0.30069604  0.85057914  0.64865076     0.92700
C906        C  0.18302503  0.71587516  0.67812896     0.92500
Mg907      Mg  0.19685318  0.91653898  0.69326907     1.58000
O908        O  0.17844960  0.95143984  0.66421537    -0.81100
O909        O  0.21761999  0.88712549  0.72993992    -0.75400
O910        O  0.27272429  0.82040875  0.65520179    -0.81200
O911        O  0.07841478  0.70041991  0.64369334    -0.82900
O912        O  0.05925187  0.84475157  0.67566846    -0.81200
C913        C  0.22928743  0.86578626  0.72346390     0.86900
O914        O  0.14336553  0.87160512  0.69406583    -0.88400
O915        O  0.20676521  0.89601579  0.64252566    -0.88500
O916        O  0.16171276  0.88535666  0.60633142    -0.75500
Mg917      Mg  0.22031837  0.80122140  0.68752807     1.58000
O918        O  0.29991045  0.87952780  0.64587294    -0.82900
H919        H  0.11939920  0.75719299  0.74515411    -0.06600
O920        O  0.10322799  0.81043771  0.64154353    -0.88200
H921        H  0.09137014  0.80693852  0.58754203    -0.06500
H922        H  0.13901189  0.87726502  0.74859263    -0.06600
C923        C  0.10173118  0.79829335  0.61016256     0.86900
C924        C  0.13768301  0.76779259  0.72172076     0.87500
C925        C  0.13063201  0.85938435  0.72500154     0.87500
H926        H  0.21356815  0.90762570  0.58832944    -0.06600
O927        O  0.22367381  0.83965996  0.60373195    -0.75600
Mg928      Mg  0.11203411  0.86368765  0.64451826     1.58000
H929        H  0.19297014  0.78897500  0.58392165    -0.06600
C930        C  0.04854791  0.69915299  0.64926323     0.92500
O931        O  0.03278038  0.78649960  0.68982703    -0.82900
C932        C  0.03188006  0.81526945  0.68547910     0.92600
O933        O  0.21204575  0.74548848  0.68259072    -0.82900
Mg934      Mg  0.25190881  0.88770992  0.64358442     1.58200
O935        O  0.04626914  0.72634152  0.65873463    -0.81200
O936        O  0.25293819  0.96438537  0.69195481    -0.82900
C937        C  0.47258715  0.81827872  0.68392401    -0.13400
C938        C  0.99830088  0.81451836  0.68822311    -0.15000
C939        C  0.36026323  0.84816309  0.65335692    -0.13400
C940        C  0.33454680  0.85170361  0.64794072    -0.15000
C941        C  0.36343697  0.84928777  0.73844146    -0.13500
C942        C  0.39795242  0.87128762  0.72318975     0.08700
C943        C  0.41879003  0.90669987  0.73644548    -0.13500
C944        C  0.40500000  0.91961049  0.76431844    -0.13500
C945        C  0.36966944  0.89774819  0.77828681     0.08700
C946        C  0.34932148  0.86243271  0.76493313    -0.13500
H947        H  0.34694907  0.82176291  0.72923016     0.12700
H948        H  0.44556087  0.92425072  0.72529857     0.12700
H949        H  0.42169804  0.94667768  0.77460027     0.12700
H950        H  0.32206665  0.84480760  0.77492325     0.12700
C951        C  0.37151366  0.79881860  0.57264268    -0.13500
C952        C  0.36374505  0.79433912  0.61069578     0.08700
C953        C  0.32747773  0.77293543  0.62227529    -0.13500
C954        C  0.29937071  0.75865104  0.59640854    -0.13500
C955        C  0.30713622  0.76380495  0.55831386     0.08700
C956        C  0.34358523  0.78307527  0.54678994    -0.13500
H957        H  0.39901117  0.81558705  0.56292468     0.12700
H958        H  0.32081554  0.76930972  0.65158338     0.12700
H959        H  0.27168096  0.74493179  0.60622116     0.12700
H960        H  0.35031605  0.78766506  0.51752945     0.12700
C961        C  0.47030357  0.81588054  0.60035939    -0.13500
C962        C  0.43504188  0.79487283  0.61428341     0.08700
C963        C  0.41351608  0.75984031  0.60026739    -0.13500
C964        C  0.42713732  0.74658326  0.57257612    -0.13500
C965        C  0.46310877  0.76743672  0.55988715     0.08700
C966        C  0.48441859  0.80207198  0.57467010    -0.13500
H967        H  0.98743129  0.84312714  0.61007636     0.12700
H968        H  0.38623305  0.74292189  0.61046863     0.12700
H969        H  0.40969811  0.72009094  0.56126516     0.12700
H970        H  0.01228068  0.81889431  0.56603220     0.12700
C971        C  0.31544827  0.99976864  0.68904205    -0.13400
C972        C  0.34444669  0.52606587  0.68440413    -0.15000
C973        C  0.48659422  0.63953207  0.65358332    -0.13400
C974        C  0.01584577  0.66542418  0.64831604    -0.15000
C975        C  0.38761609  0.49416930  0.71387729    -0.13500
C976        C  0.40203406  0.52982600  0.72634921     0.08700
C977        C  0.40335043  0.03609415  0.76449783    -0.13500
C978        C  0.38894267  0.00724190  0.78951814    -0.13500
C979        C  0.37158817  0.97135875  0.77687733     0.08700
C980        C  0.37143782  0.96519886  0.73863431    -0.13500
H981        H  0.38608778  0.48860650  0.68441199     0.12700
H982        H  0.41383214  0.06311425  0.77490582     0.12700
H983        H  0.38956410  0.01289172  0.81888662     0.12700
H984        H  0.35745981  0.93813597  0.72773357     0.12700
C985        C  0.34523926  0.52777765  0.60084329    -0.13500
C986        C  0.35856642  0.56285092  0.61413947     0.08700
C987        C  0.34420129  0.58336555  0.59956150    -0.13500
C988        C  0.31731953  0.56891375  0.57199836    -0.13500
C989        C  0.30303577  0.53309836  0.56004572     0.08700
C990        C  0.31732219  0.51284057  0.57522368    -0.13500
H991        H  0.35620130  0.01152007  0.61088582     0.12700
H992        H  0.35388208  0.61048036  0.60925204     0.12700
H993        H  0.30754578  0.58556758  0.56027263     0.12700
H994        H  0.30709687  0.98525761  0.56691968     0.12700
C995        C  0.44493685  0.67113642  0.62085323    -0.13500
C996        C  0.42921919  0.63498688  0.60973546     0.08700
C997        C  0.42546255  0.62733458  0.57164827    -0.13500
C998        C  0.43799618  0.65522744  0.54546036    -0.13500
C999        C  0.45667458  0.69163550  0.55654751     0.08700
C1000       C  0.45984879  0.69904153  0.59478038    -0.13500
H1001       H  0.44824952  0.67788590  0.65008446     0.12700
H1002       H  0.41393572  0.59991890  0.56208254     0.12700
H1003       H  0.93453426  0.64825409  0.51631180     0.12700
H1004       H  0.47517994  0.72633468  0.60481435     0.12700
C1005       C  0.50582818  0.89355764  0.71383309    -0.13500
C1006       C  0.46968773  0.87267246  0.72594614     0.08700
C1007       C  0.46248818  0.86824843  0.76411006    -0.13500
C1008       C  0.99087569  0.88333449  0.78953115    -0.13500
C1009       C  0.02717539  0.90184189  0.77741205     0.08700
C1010       C  0.03431626  0.90701821  0.73919169    -0.13500
H1011       H  0.51205821  0.89711983  0.68442656     0.12700
H1012       H  0.43508349  0.85186481  0.77423430     0.12700
H1013       H  0.98453538  0.87889546  0.81887479     0.12700
H1014       H  0.06179648  0.92011759  0.72881052     0.12700
C1015       C  0.48741473  0.58172426  0.73629124    -0.13500
C1016       C  0.47207516  0.60197323  0.72347811     0.08700
C1017       C  0.98419609  0.63613829  0.73869669    -0.13500
C1018       C  0.01193715  0.65056118  0.76460941    -0.13500
C1019       C  0.02779088  0.63085817  0.77742506     0.08700
C1020       C  0.51460504  0.59580488  0.76357709    -0.13500
H1021       H  0.47852403  0.55524261  0.72513165     0.12700
H1022       H  0.97259215  0.65217803  0.72976401     0.12700
H1023       H  0.02130545  0.67759228  0.77445621     0.12700
H1024       H  0.52556130  0.57952556  0.77348722     0.12700
C1025       C  0.18374035  0.68319693  0.67934318    -0.13400
C1026       C  0.18009267  0.65384477  0.67570496    -0.15000
C1027       C  0.15125534  0.51104246  0.65569549    -0.13400
C1028       C  0.14809610  0.98184508  0.65218937    -0.15000
C1029       C  0.07857417  0.98690857  0.76390702    -0.13500
C1030       C  0.10062524  0.97449380  0.77915832     0.08700
C1031       C  0.13665609  0.99043142  0.76689004    -0.13500
C1032       C  0.15030218  0.51752687  0.74013810    -0.13500
C1033       C  0.12805769  0.52870264  0.72343133     0.08700
C1034       C  0.09200148  0.51331977  0.73569022    -0.13500
H1035       H  0.05096125  0.97586856  0.77334048     0.12700
H1036       H  0.15448401  0.98165132  0.77780352     0.12700
H1037       H  0.17827577  0.52916693  0.73159367     0.12700
H1038       H  0.07428867  0.52156405  0.72338622     0.12700
C1039       C  0.10683915  0.61428966  0.71103916    -0.13500
C1040       C  0.12763680  0.59914102  0.72295575     0.08700
C1041       C  0.13260584  0.59726066  0.76111632    -0.13500
C1042       C  0.11820887  0.61129822  0.78659652    -0.13500
C1043       C  0.09992100  0.62907877  0.77457393     0.08700
C1044       C  0.09419463  0.63016107  0.73639645    -0.13500
H1045       H  0.10263092  0.61611866  0.68168392     0.12700
H1046       H  0.14889377  0.58634192  0.77119982     0.12700
H1047       H  0.12303799  0.60995021  0.81587844     0.12700
H1048       H  0.08122459  0.64442747  0.72598771     0.12700
C1049       C  0.23691062  0.53485828  0.59558543    -0.13500
C1050       C  0.23258139  0.53735276  0.55730326     0.08700
C1051       C  0.21517196  0.55595506  0.54523487    -0.13500
C1052       C  0.20002700  0.56916737  0.57071723    -0.13500
C1053       C  0.20389199  0.56608557  0.60891180     0.08700
C1054       C  0.22414462  0.55045961  0.62094523    -0.13500
H1055       H  0.24890518  0.51973389  0.60612747     0.12700
H1056       H  0.21164253  0.05870202  0.51594249     0.12700
H1057       H  0.18421398  0.58057545  0.56053903     0.12700
H1058       H  0.22764271  0.54787721  0.65032623     0.12700
C1059       C  0.18341724  0.64729133  0.59012244    -0.13500
C1060       C  0.20505854  0.63664800  0.60898767     0.08700
C1061       C  0.24170635  0.65225641  0.59876544    -0.13500
C1062       C  0.25633523  0.67854984  0.57051500    -0.13500
C1063       C  0.23472766  0.69025183  0.55285605     0.08700
C1064       C  0.19804238  0.67387253  0.56292832    -0.13500
H1065       H  0.15504672  0.63542153  0.59712334     0.12700
H1066       H  0.25891495  0.64428870  0.61273871     0.12700
H1067       H  0.28448455  0.69002427  0.56288110     0.12700
H1068       H  0.18055250  0.68215228  0.55010043     0.12700
C1069       C  0.49164906  0.65372534  0.99949605    -0.13400
C1070       C  0.49555041  0.68312942  0.99914847    -0.15000
C1071       C  0.50717451  0.81909828  0.99974248    -0.13400
C1072       C  0.50796816  0.84691084  0.99433778    -0.15000
C1073       C  0.07469592  0.82208274  0.93089990    -0.13500
C1074       C  0.03765663  0.80199233  0.93981114     0.08700
C1075       C  0.01362807  0.80873489  0.91993071    -0.13500
C1076       C  0.02626988  0.83749627  0.89537062    -0.13500
C1077       C  0.06333619  0.85886941  0.88694966     0.08700
C1078       C  0.08727834  0.84954988  0.90377615    -0.13500
H1079       H  0.09381716  0.81706580  0.94539840     0.12700
H1080       H  0.98491397  0.79334677  0.92579001     0.12700
H1081       H  0.00664212  0.84347964  0.88367764     0.12700
H1082       H  0.11573937  0.86405128  0.89684426     0.12700
C1083       C  0.03555698  0.73572774  0.90640962    -0.13500
C1084       C  0.04161073  0.73388595  0.94441234     0.08700
C1085       C  0.06335919  0.71922313  0.95470649    -0.13500
C1086       C  0.07614668  0.70435497  0.92809860    -0.13500
C1087       C  0.07016018  0.70643201  0.89008822     0.08700
C1088       C  0.05057411  0.72335451  0.87974740    -0.13500
H1089       H  0.51812890  0.74556657  0.89711945     0.12700
H1090       H  0.06883570  0.71750738  0.98371498     0.12700
H1091       H  0.09003604  0.69061068  0.93735838     0.12700
H1092       H  0.04531244  0.72547369  0.85075613     0.12700
C1093       C  0.18200701  0.68411292  0.99463253    -0.13400
C1094       C  0.15366105  0.65844775  0.98648314    -0.15000
C1095       C  0.34450990  0.83972139  0.00923503    -0.13400
C1096       C  0.31612726  0.81286162  0.00531494    -0.15000
C1097       C  0.26836341  0.79903110  0.90729305    -0.13500
C1098       C  0.26875927  0.80621180  0.94534263     0.08700
C1099       C  0.28111685  0.84212547  0.95604206    -0.13500
C1100       C  0.29502066  0.87013732  0.92968598    -0.13500
C1101       C  0.29413157  0.86265395  0.89157452     0.08700
C1102       C  0.27935148  0.82641790  0.88093775    -0.13500
H1103       H  0.26024601  0.77222507  0.89771827     0.12700
H1104       H  0.28142704  0.84876102  0.98506672     0.12700
H1105       H  0.30709848  0.89760329  0.93922454     0.12700
H1106       H  0.27795442  0.81933817  0.85190369     0.12700
C1107       C  0.19394701  0.70509928  0.91601597    -0.13500
C1108       C  0.20104762  0.73485795  0.93777071     0.08700
C1109       C  0.18207552  0.75298740  0.93022827    -0.13500
C1110       C  0.15512250  0.74008027  0.90265287    -0.13500
C1111       C  0.14493044  0.70742525  0.88418753     0.08700
C1112       C  0.16534932  0.69062112  0.89124126    -0.13500
H1113       H  0.20865709  0.69105864  0.92068071     0.12700
H1114       H  0.18759118  0.77655043  0.94608622     0.12700
H1115       H  0.14164465  0.75504421  0.89670474     0.12700
H1116       H  0.15869581  0.66532310  0.87839995     0.12700
C1117       C  0.31341834  0.99611536  0.99256103    -0.13400
C1118       C  0.33964496  0.99448010  0.98401146    -0.15000
C1119       C  0.18639603  0.00489197  0.00619907    -0.13400
C1120       C  0.16046836  0.00819588  0.01018846    -0.15000
C1121       C  0.12671169  0.92768115  0.93056910    -0.13500
C1122       C  0.13468620  0.93489138  0.89258361     0.08700
C1123       C  0.17119307  0.95587588  0.88179161    -0.13500
C1124       C  0.19868200  0.97068677  0.90807466    -0.13500
C1125       C  0.19096718  0.96295414  0.94593219     0.08700
C1126       C  0.15463487  0.94037696  0.95674802    -0.13500
H1127       H  0.09897349  0.91266678  0.94009861     0.12700
H1128       H  0.17847247  0.96207416  0.85279845     0.12700
H1129       H  0.22604995  0.48884560  0.89864483     0.12700
H1130       H  0.14772604  0.93370447  0.98572915     0.12700
C1131       C  0.25780348  0.91216270  0.90414456    -0.13500
C1132       C  0.29051743  0.93525891  0.88539733     0.08700
C1133       C  0.30610888  0.97252624  0.89151395    -0.13500
C1134       C  0.29036874  0.98614383  0.91531568    -0.13500
C1135       C  0.26078404  0.96314776  0.93752678     0.08700
C1136       C  0.24375895  0.92589895  0.93102287    -0.13500
H1137       H  0.24371242  0.88355846  0.89899884     0.12700
H1138       H  0.33152842  0.99173217  0.87876318     0.12700
H1139       H  0.30372484  0.51487934  0.91951951     0.12700
H1140       H  0.22040316  0.90753182  0.94736053     0.12700
C1141       C  0.45647316  0.78180039  0.12293704    -0.13500
C1142       C  0.43487989  0.79630203  0.11144697     0.08700
C1143       C  0.42834760  0.79639388  0.07329363    -0.13500
C1144       C  0.44259361  0.78209504  0.04773546    -0.13500
C1145       C  0.46655167  0.77039947  0.05910580     0.08700
C1146       C  0.47317788  0.77043733  0.09716487    -0.13500
H1147       H  0.46178771  0.78061653  0.15209858     0.12700
H1148       H  0.41300029  0.80825988  0.06300036     0.12700
H1149       H  0.43627991  0.78182266  0.01863227     0.12700
H1150       H  0.99153902  0.76191427  0.10702854     0.12700
C1151       C  0.33795180  0.81095248  0.10535009    -0.13500
C1152       C  0.35861538  0.79452228  0.11315525     0.08700
C1153       C  0.34737389  0.76073664  0.09660023    -0.13500
C1154       C  0.31848692  0.74585344  0.07085458    -0.13500
C1155       C  0.29858965  0.76313920  0.06337489     0.08700
C1156       C  0.30733323  0.79443122  0.08323761    -0.13500
H1157       H  0.34551825  0.83725024  0.11616913     0.12700
H1158       H  0.36124373  0.74620860  0.10285201     0.12700
H1159       H  0.31221528  0.72141258  0.05630625     0.12700
H1160       H  0.29239743  0.80824338  0.07855330     0.12700
C1161       C  0.31537778  0.97037354  0.31994705    -0.13400
C1162       C  0.31486151  0.49775413  0.31632724    -0.15000
C1163       C  0.34526108  0.82981764  0.35135019    -0.13400
C1164       C  0.34322604  0.85651287  0.34750717    -0.15000
C1165       C  0.25668892  0.91473663  0.40067194    -0.13500
C1166       C  0.29315547  0.93335440  0.38953481     0.08700
C1167       C  0.31628515  0.96683796  0.40553284    -0.13500
C1168       C  0.30335174  0.98165240  0.43141516    -0.13500
C1169       C  0.26741112  0.96234633  0.44434261     0.08700
C1170       C  0.24445450  0.92809852  0.42933495    -0.13500
H1171       H  0.23737471  0.89044606  0.38687300     0.12700
H1172       H  0.34438367  0.48214013  0.39706663     0.12700
H1173       H  0.32180592  0.50839604  0.44156550     0.12700
H1174       H  0.21682668  0.91209736  0.43890976     0.12700
C1175       C  0.32313507  0.86408634  0.42326445    -0.13500
C1176       C  0.29944087  0.86766065  0.39939722     0.08700
C1177       C  0.26215370  0.84368306  0.40370927    -0.13500
C1178       C  0.24911030  0.81728789  0.43163045    -0.13500
C1179       C  0.27303688  0.80980225  0.45093174     0.08700
C1180       C  0.31044231  0.83439792  0.44668380    -0.13500
H1181       H  0.35202053  0.88203675  0.42067150     0.12700
H1182       H  0.24310877  0.84384111  0.38434984     0.12700
H1183       H  0.22029161  0.80123144  0.43607296     0.12700
H1184       H  0.33048845  0.83027420  0.46040186     0.12700
C1185       C  0.40372852  0.91704896  0.26568554    -0.13500
C1186       C  0.36819319  0.89593925  0.27926149     0.08700
C1187       C  0.34717779  0.86075790  0.26602566    -0.13500
C1188       C  0.36170524  0.84597444  0.24223632    -0.13500
C1189       C  0.39669127  0.86688416  0.22747013     0.08700
C1190       C  0.41750865  0.90293858  0.23910438    -0.13500
H1191       H  0.42065172  0.94427010  0.27546682     0.12700
H1192       H  0.31954017  0.84397810  0.27542285     0.12700
H1193       H  0.34498609  0.81796145  0.23479629     0.12700
H1194       H  0.44429566  0.92006527  0.22779336     0.12700
C1195       C  0.13755224  0.98673184  0.35157547    -0.13400
C1196       C  0.16489170  0.51502301  0.35498202    -0.15000
C1197       C  0.49979449  0.81522074  0.31795783    -0.13400
C1198       C  0.02647784  0.84409602  0.32140531    -0.15000
C1199       C  0.02865143  0.84551282  0.40484065    -0.13500
C1200       C  0.06378281  0.85914993  0.39090498     0.08700
C1201       C  0.08492749  0.84517636  0.40483607    -0.13500
C1202       C  0.07078271  0.81799247  0.43220386    -0.13500
C1203       C  0.03464797  0.80299655  0.44429175     0.08700
C1204       C  0.01397842  0.81723324  0.43000107    -0.13500
H1205       H  0.01196128  0.85619381  0.39525949     0.12700
H1206       H  0.11220535  0.85530715  0.39472159     0.12700
H1207       H  0.08776599  0.80835704  0.44345490     0.12700
H1208       H  0.98615185  0.80655805  0.43860446     0.12700
C1209       C  0.15578279  0.93991600  0.45869703    -0.13500
C1210       C  0.19223975  0.95866317  0.44687008     0.08700
C1211       C  0.19936174  0.96180875  0.40855390    -0.13500
C1212       C  0.17105479  0.94639166  0.38302290    -0.13500
C1213       C  0.13477778  0.93029749  0.39482784     0.08700
C1214       C  0.12744241  0.92678847  0.43303965    -0.13500
H1215       H  0.14916252  0.93678323  0.48800247     0.12700
H1216       H  0.22677323  0.97709384  0.39816077     0.12700
H1217       H  0.17752161  0.94954103  0.35366476     0.12700
H1218       H  0.09992307  0.91499120  0.44306640     0.12700
C1219       C  0.49284906  0.88387991  0.28818943    -0.13500
C1220       C  0.02936832  0.90051837  0.27716756     0.08700
C1221       C  0.03739736  0.90526073  0.23906767    -0.13500
C1222       C  0.00955121  0.89279333  0.21279009    -0.13500
C1223       C  0.47284414  0.87345628  0.22375012     0.08700
C1224       C  0.46505674  0.86933986  0.26199605    -0.13500
H1225       H  0.48576579  0.87986591  0.31739515     0.12700
H1226       H  0.06512190  0.91763665  0.22954574     0.12700
H1227       H  0.01682610  0.89700054  0.18366291     0.12700
H1228       H  0.43753191  0.85361712  0.27191394     0.12700
C1229       C  0.47138459  0.65283903  0.10013940    -0.13500
C1230       C  0.43649604  0.64042830  0.11451839     0.08700
C1231       C  0.42064653  0.66165619  0.10707920    -0.13500
C1232       C  0.43527928  0.68893602  0.07975883    -0.13500
C1233       C  0.46972505  0.70035821  0.06431813     0.08700
C1234       C  0.48854396  0.68367531  0.07794312    -0.13500
H1235       H  0.48617075  0.63941555  0.10744329     0.12700
H1236       H  0.39748177  0.65793520  0.12279579     0.12700
H1237       H  0.41987308  0.70137507  0.07147098     0.12700
H1238       H  0.01613671  0.69310857  0.06928065     0.12700
C1239       C  0.34994529  0.58250570  0.09263531    -0.13500
C1240       C  0.36346524  0.56234976  0.10965448     0.08700
C1241       C  0.34765174  0.52586125  0.09906454    -0.13500
C1242       C  0.31823512  0.51005519  0.07476973    -0.13500
C1243       C  0.30557731  0.53082643  0.05745242     0.08700
C1244       C  0.32329418  0.56761843  0.06529475    -0.13500
H1245       H  0.35809893  0.60911182  0.10101334     0.12700
H1246       H  0.35723177  0.50894751  0.11056172     0.12700
H1247       H  0.30584242  0.98170985  0.06873866     0.12700
H1248       H  0.31684652  0.58519206  0.05021973     0.12700
C1249       C  0.38981247  0.50358564  0.28910654    -0.13500
C1250       C  0.36938233  0.96778621  0.27633045     0.08700
C1251       C  0.36579803  0.96181073  0.23794423    -0.13500
C1252       C  0.38087423  0.99092619  0.21304560    -0.13500
C1253       C  0.39827419  0.52694570  0.22594697     0.08700
C1254       C  0.40265932  0.53265005  0.26442490    -0.13500
H1255       H  0.39305180  0.50904074  0.31861976     0.12700
H1256       H  0.35015663  0.93476698  0.22722407     0.12700
H1257       H  0.37739619  0.98525650  0.18360105     0.12700
H1258       H  0.41466718  0.55947788  0.27574039     0.12700
C1259       C  0.21660239  0.66930956  0.12014476    -0.13500
C1260       C  0.19934583  0.63302479  0.10889706     0.08700
C1261       C  0.19809421  0.62593716  0.07067885    -0.13500
C1262       C  0.21432016  0.65426466  0.04485040    -0.13500
C1263       C  0.22901823  0.69044699  0.05600524     0.08700
C1264       C  0.22999592  0.69736038  0.09419672    -0.13500
H1265       H  0.21838910  0.67606182  0.14930433     0.12700
H1266       H  0.18440712  0.59853066  0.06070727     0.12700
H1267       H  0.21387023  0.64770680  0.01578579     0.12700
H1268       H  0.24008780  0.72442358  0.10419183     0.12700
C1269       C  0.18709816  0.52176535  0.10802422    -0.13500
C1270       C  0.20092816  0.55901687  0.11347669     0.08700
C1271       C  0.23333656  0.58264089  0.09477273    -0.13500
C1272       C  0.24843171  0.56956453  0.06856386    -0.13500
C1273       C  0.23524781  0.53240500  0.06476153     0.08700
C1274       C  0.20520684  0.50891141  0.08628069    -0.13500
H1275       H  0.16145704  0.50188974  0.11978927     0.12700
H1276       H  0.24637497  0.61129882  0.09898780     0.12700
H1277       H  0.26901567  0.58865425  0.05008944     0.12700
H1278       H  0.19313171  0.48014005  0.08276427     0.12700
C1279       C  0.09168209  0.51229237  0.24027171    -0.13500
C1280       C  0.12783806  0.52773858  0.22807799     0.08700
C1281       C  0.14950984  0.51531407  0.24385410    -0.13500
C1282       C  0.13526605  0.98712273  0.26909944    -0.13500
C1283       C  0.09976705  0.97236154  0.28238962     0.08700
C1284       C  0.07805339  0.98552657  0.26808472    -0.13500
H1285       H  0.07409437  0.52089625  0.22838269     0.12700
H1286       H  0.17762506  0.52689967  0.23593018     0.12700
H1287       H  0.15253975  0.97725941  0.27903971     0.12700
H1288       H  0.05059688  0.97478016  0.27791990     0.12700
C1289       C  0.15347446  0.67741289  0.31971925    -0.13400
C1290       C  0.18164523  0.67857810  0.31414055    -0.15000
C1291       C  0.48395838  0.64944176  0.35850095    -0.13400
C1292       C  0.01268232  0.65128569  0.35410798    -0.15000
C1293       C  0.05918491  0.72789523  0.38375500    -0.13500
C1294       C  0.07053819  0.70402715  0.39602817     0.08700
C1295       C  0.06540389  0.69427939  0.43363082    -0.13500
C1296       C  0.05188223  0.70953977  0.45850517    -0.13500
C1297       C  0.03805922  0.73129683  0.44608096     0.08700
C1298       C  0.04158915  0.73987238  0.40797497    -0.13500
H1299       H  0.06072013  0.73438130  0.35451176     0.12700
H1300       H  0.06896496  0.67286337  0.44390373     0.12700
H1301       H  0.05003453  0.70209944  0.48746210     0.12700
H1302       H  0.02950014  0.75446329  0.39633080     0.12700
C1303       C  0.13838649  0.69170569  0.42416661    -0.13500
C1304       C  0.14343020  0.70605281  0.38837507     0.08700
C1305       C  0.17892420  0.73261014  0.37816709    -0.13500
C1306       C  0.20808058  0.74297388  0.40280602    -0.13500
C1307       C  0.20186519  0.73135394  0.44011034     0.08700
C1308       C  0.16602499  0.70605283  0.45027552    -0.13500
H1309       H  0.11362892  0.66773172  0.43152210     0.12700
H1310       H  0.18451412  0.74357396  0.35031455     0.12700
H1311       H  0.23530437  0.76022210  0.39266310     0.12700
H1312       H  0.15942961  0.69546925  0.47824980     0.12700
C1313       C  0.51052716  0.59377109  0.26847007    -0.13500
C1314       C  0.02521089  0.62862043  0.28322037     0.08700
C1315       C  0.01149321  0.65031767  0.27081464    -0.13500
C1316       C  0.98292343  0.63730464  0.24594697    -0.13500
C1317       C  0.46845572  0.60286310  0.23040912     0.08700
C1318       C  0.48306898  0.58137643  0.24152729    -0.13500
H1319       H  0.52044296  0.57633703  0.27749805     0.12700
H1320       H  0.02252896  0.67746297  0.28113790     0.12700
H1321       H  0.97235722  0.65461621  0.23848141     0.12700
H1322       H  0.47325475  0.55506574  0.22948921     0.12700
C1323       C  0.09203016  0.63130468  0.23831084    -0.13500
C1324       C  0.09532290  0.62663969  0.27635956     0.08700
C1325       C  0.11029002  0.60544862  0.28701341    -0.13500
C1326       C  0.12530847  0.59279619  0.26073699    -0.13500
C1327       C  0.12236886  0.59739675  0.22250643     0.08700
C1328       C  0.10438784  0.61595825  0.21176638    -0.13500
H1329       H  0.08094687  0.64769696  0.22910181     0.12700
H1330       H  0.11331736  0.60145049  0.31617176     0.12700
H1331       H  0.14048074  0.58069093  0.27077277     0.12700
H1332       H  0.10106724  0.61987978  0.18270041     0.12700
C1333       C  0.61796616  0.17123216  0.32884504     0.02200
C1334       C  0.58876647  0.14773732  0.30566278     0.02200
C1335       C  0.55423342  0.14353403  0.31224611     0.02200
C1336       C  0.54877105  0.15891989  0.34475460     0.02200
C1337       C  0.57786376  0.18261600  0.36779635     0.02200
C1338       C  0.61304725  0.18794530  0.36066409     0.02200
C1339       C  0.64080751  0.08618077  0.19411529     0.02200
C1340       C  0.64350491  0.05471528  0.19718642     0.02100
C1341       C  0.66348892  0.04832212  0.17023947    -0.18400
C1342       C  0.68154924  0.07134776  0.14000090     0.02200
C1343       C  0.67995076  0.10376987  0.13743869     0.02100
C1344       C  0.65895310  0.10969831  0.16410759    -0.18400
H1345       H  0.65755282  0.13403520  0.16194022     0.04200
H1346       H  0.66566543  0.02458860  0.17381718     0.04200
C1347       C  0.90827955  0.05734172  0.19889517     0.02200
C1348       C  0.94024186  0.09157934  0.20081805     0.02100
C1349       C  0.94601913  0.11749836  0.17350487    -0.18400
C1350       C  0.92251934  0.11104096  0.14344877     0.02200
C1351       C  0.89032859  0.07639689  0.14123679     0.02100
C1352       C  0.88353520  0.05157566  0.17032943    -0.18400
H1353       H  0.85799886  0.02654558  0.17065675     0.04200
H1354       H  0.97065984  0.14338371  0.17471580     0.04200
C1355       C  0.55413533  0.38056964  0.32947041     0.02200
C1356       C  0.55793707  0.40869668  0.30588734     0.02200
C1357       C  0.58742739  0.44381085  0.31170344     0.02200
C1358       C  0.60960993  0.45040020  0.34335159     0.02200
C1359       C  0.60592771  0.42223531  0.36665395     0.02200
C1360       C  0.57632433  0.38726915  0.36112158     0.02200
C1361       C  0.82326866  0.44210614  0.32765614     0.02200
C1362       C  0.84772958  0.43835683  0.30401252     0.02200
C1363       C  0.85225352  0.40820421  0.30897815     0.02200
C1364       C  0.83678570  0.38605350  0.34089018     0.02200
C1365       C  0.81462131  0.39173684  0.36617869     0.02200
C1366       C  0.80811527  0.42037020  0.35966020     0.02200
C1367       C  0.94353435  0.35439741  0.19539374     0.02200
C1368       C  0.90875515  0.35075259  0.19781563     0.02100
C1369       C  0.88289366  0.33008293  0.17082912    -0.18400
C1370       C  0.88920200  0.31262525  0.14104320     0.02200
C1371       C  0.92371059  0.31489928  0.13945287    -0.00900
C1372       C  0.95004441  0.33648601  0.16617153    -0.18400
H1373       H  0.97642527  0.33893248  0.16455738     0.04200
H1374       H  0.85651776  0.32748836  0.17327946     0.04200
C1375       C  0.78009818  0.49617867  0.99808807     0.02200
C1376       C  0.77621748  0.01467866  0.02884569     0.02200
C1377       C  0.74424500  0.01683009  0.03173019     0.02200
C1378       C  0.71739372  0.50027831  0.00392699     0.02200
C1379       C  0.72053584  0.48032286  0.97421754     0.02200
C1380       C  0.75273600  0.47895489  0.97090289     0.02200
C1381       C  0.78170558  0.28071744  0.00350675     0.02200
C1382       C  0.77315187  0.25368657  0.03098173     0.02200
C1383       C  0.74029593  0.22035138  0.02784646     0.02200
C1384       C  0.71684211  0.21623355  0.99789360     0.02200
C1385       C  0.72571026  0.24341781  0.97064318     0.02200
C1386       C  0.75824633  0.27657504  0.97381684     0.02200
C1387       C  0.00266209  0.21925150  0.00239669     0.02200
C1388       C  0.98630577  0.22747399  0.03252543     0.02200
C1389       C  0.98636118  0.26058184  0.03100739     0.02200
C1390       C  0.00542481  0.28492281  0.00139832     0.02200
C1391       C  0.52313235  0.27696391  0.97261367     0.02200
C1392       C  0.52281651  0.24402541  0.97367916     0.02200
C1393       C  0.65970870  0.04766895  0.66184091     0.02200
C1394       C  0.68343480  0.07480597  0.63679049     0.02200
C1395       C  0.68802642  0.10958969  0.63967674     0.02200
C1396       C  0.67157041  0.11723546  0.66978759     0.02200
C1397       C  0.64792140  0.09016530  0.69501033     0.02200
C1398       C  0.64369798  0.05543062  0.69233741     0.02200
C1399       C  0.57987442  0.18768205  0.86097151     0.02200
C1400       C  0.61420146  0.18999264  0.85702492     0.02100
C1401       C  0.61915985  0.17215113  0.82660665    -0.18400
C1402       C  0.59135226  0.14980236  0.80216415     0.02200
C1403       C  0.55750427  0.14805754  0.80552655     0.02100
C1404       C  0.55246016  0.16643796  0.83527901    -0.18400
H1405       H  0.52607969  0.16382981  0.83864863     0.04200
H1406       H  0.64566052  0.17551338  0.82166350     0.04200
C1407       C  0.60604162  0.42449122  0.86377262     0.02200
C1408       C  0.57504227  0.38961004  0.85988047     0.02100
C1409       C  0.55171839  0.38391491  0.82981028    -0.18400
C1410       C  0.55652906  0.41122701  0.80495656     0.02200
C1411       C  0.58801157  0.44549820  0.80803291     0.02100
C1412       C  0.61118809  0.45156114  0.83817492    -0.18400
H1413       H  0.63424706  0.47833245  0.84155751     0.04200
H1414       H  0.52890286  0.35721754  0.82534512     0.04200
C1415       C  0.88086301  0.05412548  0.67534652     0.02200
C1416       C  0.90940440  0.05872375  0.69865277     0.02200
C1417       C  0.94401076  0.08928545  0.69365305     0.02200
C1418       C  0.95020515  0.11160307  0.66222774     0.02200
C1419       C  0.92176642  0.10669121  0.63837365     0.02200
C1420       C  0.88701513  0.07616902  0.64369179     0.02200
C1421       C  0.94495084  0.32703232  0.67514141     0.02200
C1422       C  0.94079186  0.35131337  0.69829331     0.02200
C1423       C  0.91047608  0.35571842  0.69335909     0.02200
C1424       C  0.88792156  0.33943825  0.66220316     0.02200
C1425       C  0.89226072  0.31535583  0.63884239     0.02200
C1426       C  0.92253835  0.31086432  0.64388419     0.02200
C1427       C  0.81276322  0.39160457  0.86270859     0.02200
C1428       C  0.80927984  0.42279396  0.85862583     0.02100
C1429       C  0.82716107  0.44585210  0.82817406    -0.18400
C1430       C  0.85050658  0.44154125  0.80395036     0.02200
C1431       C  0.85289194  0.41003063  0.80709914     0.02100
C1432       C  0.83486471  0.38650969  0.83695441    -0.18400
H1433       H  0.83834581  0.36339825  0.84014134     0.04200
H1434       H  0.82304961  0.46830932  0.82293186     0.04200
C1435       C  0.51783402  0.27441810  0.47348633     0.02200
C1436       C  0.51707236  0.24098093  0.47294433     0.02100
C1437       C  0.99518321  0.21481925  0.49973745    -0.18400
C1438       C  0.97633163  0.22110255  0.52833735     0.02200
C1439       C  0.97919248  0.25544998  0.53000440     0.02100
C1440       C  0.99925477  0.28076164  0.50216380    -0.18400
H1441       H  0.00040123  0.30648930  0.50273448     0.04200
H1442       H  0.99320521  0.18879381  0.49874434     0.04200
C1443       C  0.76085545  0.27733525  0.47563792     0.02200
C1444       C  0.73140047  0.24172534  0.46862114     0.02100
C1445       C  0.72736776  0.21375300  0.49255227    -0.18400
C1446       C  0.74866627  0.21957034  0.52431418     0.02200
C1447       C  0.77837436  0.25438965  0.53014259     0.02100
C1448       C  0.78256624  0.28242904  0.50701122    -0.18400
H1449       H  0.80363873  0.30932153  0.51418594     0.04200
H1450       H  0.70609668  0.18644685  0.48721430     0.04200
C1451       C  0.75557395  0.47856282  0.47407692     0.02200
C1452       C  0.72192961  0.47780987  0.47465226     0.02100
C1453       C  0.71632369  0.49759814  0.50237903    -0.18400
C1454       C  0.74217415  0.01749476  0.52983999     0.02200
C1455       C  0.77469477  0.01629201  0.53061834     0.02100
C1456       C  0.78047758  0.49689615  0.50269004    -0.18400
H1457       H  0.80547878  0.49632627  0.50311728     0.04200
H1458       H  0.69108764  0.49770907  0.50248415     0.04200
O1459       O  0.54114974  0.06169457  0.01544252    -0.88500
C1460       C  0.96897260  0.02958992  0.93082021     0.87600
Mg1461     Mg  0.58445070  0.05074910  0.01453929     1.58100
O1462       O  0.93851643  0.48285068  0.01536952    -0.88200
O1463       O  0.99691633  0.05598135  0.05045288    -0.75500
C1464       C  0.00821103  0.37969928  0.98945603     0.92600
O1465       O  0.55589277  0.05361974  0.92851316    -0.75300
O1466       O  0.53796855  0.40823145  0.98413000    -0.82800
Mg1467     Mg  0.53633233  0.08483852  0.96454201     1.58000
C1468       C  0.87790972  0.37223077  0.00999391     0.92500
O1469       O  0.51988138  0.12102367  0.99244896    -0.81100
H1470       H  0.92438351  0.48132818  0.06860859    -0.06500
C1471       C  0.96806783  0.43409790  0.93784398     0.87500
O1472       O  0.55451667  0.00490434  0.05683762    -0.75600
O1473       O  0.98203294  0.04180972  0.96152591    -0.88400
O1474       O  0.87758276  0.40068546  0.00205616    -0.81200
C1475       C  0.87093280  0.49215432  0.97608030     0.92700
C1476       C  0.99067830  0.12063600  0.99911855     0.92500
Mg1477     Mg  0.96278386  0.41672263  0.01997085     1.58000
O1478       O  0.97850210  0.37918099  0.99266857    -0.81100
O1479       O  0.94297868  0.44762559  0.05548988    -0.75400
O1480       O  0.90105109  0.02120016  0.97383987    -0.81200
O1481       O  0.59275334  0.13042867  0.97274551    -0.82900
O1482       O  0.59871296  0.48047467  0.00875610    -0.81200
C1483       C  0.93449318  0.47099831  0.04723462     0.86900
O1484       O  0.51702141  0.46010508  0.02211887    -0.88400
O1485       O  0.95652719  0.43804792  0.96784909    -0.88500
O1486       O  0.50087548  0.44261206  0.93391482    -0.75500
Mg1487     Mg  0.94966878  0.03649618  0.00972424     1.58000
O1488       O  0.86845201  0.46170028  0.97364215    -0.82900
H1489       H  0.54788966  0.07457966  0.06930912    -0.06600
O1490       O  0.55944742  0.01698874  0.96763072    -0.88200
H1491       H  0.57245233  0.01854749  0.91397431    -0.06500
H1492       H  0.52053662  0.45522123  0.07695715    -0.06600
C1493       C  0.56315165  0.02912756  0.93588288     0.86900
C1494       C  0.52975619  0.06487414  0.04589938     0.87500
C1495       C  0.53028846  0.47242231  0.05276202     0.87500
H1496       H  0.95007737  0.42380075  0.91435467    -0.06600
O1497       O  0.94438097  0.49681961  0.92691817    -0.75600
Mg1498     Mg  0.54874214  0.46369005  0.97431131     1.58000
H1499       H  0.97885075  0.04686403  0.90668354    -0.06600
C1500       C  0.62037152  0.12754457  0.97769938     0.92500
O1501       O  0.62998729  0.03981662  0.01152752    -0.82900
C1502       C  0.62832027  0.50983428  0.01070067     0.92600
O1503       O  0.96072577  0.09217787  0.00363241    -0.82900
Mg1504     Mg  0.91366265  0.44989181  0.96807566     1.58200
O1505       O  0.61880712  0.09748353  0.97670667    -0.81200
O1506       O  0.90652417  0.37136171  0.01584370    -0.82900
O1507       O  0.88068478  0.22390706  0.36173740    -0.88500
C1508       C  0.80979630  0.20301961  0.27722669     0.87600
Mg1509     Mg  0.91806794  0.20466898  0.36148312     1.58100
O1510       O  0.77238921  0.15322673  0.35916524    -0.88200
O1511       O  0.83776533  0.22109439  0.39698801    -0.75500
C1512       C  0.82053017  0.03318639  0.31867784     0.92600
O1513       O  0.89156637  0.21480202  0.27457603    -0.75300
O1514       O  0.85241297  0.05944903  0.31453347    -0.82800
Mg1515     Mg  0.87863518  0.25033449  0.31157293     1.58000
C1516       C  0.70050168  0.04495552  0.35148749     0.92500
O1517       O  0.86923888  0.29251995  0.34093526    -0.81100
H1518       H  0.76163741  0.15154994  0.41339988    -0.06500
C1519       C  0.79550793  0.10206536  0.27802973     0.87500
O1520       O  0.88114944  0.15690538  0.39888358    -0.75600
O1521       O  0.82221294  0.21308613  0.30862410    -0.88400
O1522       O  0.70441365  0.07452552  0.33993959    -0.81200
C1523       C  0.71251009  0.17459774  0.31529256     0.92700
C1524       C  0.84195327  0.29514967  0.35020240     0.92500
Mg1525     Mg  0.78630057  0.07861273  0.35901276     1.58000
O1526       O  0.79404303  0.03689334  0.32818897    -0.81100
O1527       O  0.77438570  0.11433802  0.39648677    -0.75400
O1528       O  0.74231042  0.20132663  0.32519056    -0.81200
O1529       O  0.93789693  0.28918777  0.31469021    -0.82900
O1530       O  0.92332699  0.12681205  0.34500997    -0.81200
C1531       C  0.76867105  0.14005020  0.39042548     0.86900
O1532       O  0.84294433  0.11538816  0.36150721    -0.88400
O1533       O  0.78438493  0.10487399  0.30880936    -0.88500
O1534       O  0.82736248  0.10781632  0.27346762    -0.75500
Mg1535     Mg  0.79129978  0.20931658  0.35750381     1.58000
O1536       O  0.70809978  0.14357291  0.31014710    -0.82900
H1537       H  0.88711262  0.23342937  0.41627038    -0.06600
O1538       O  0.89344488  0.17542212  0.31128624    -0.88200
H1539       H  0.90461511  0.17794026  0.25708263    -0.06500
H1540       H  0.84339299  0.10694245  0.41599354    -0.06600
C1541       C  0.89729271  0.18901436  0.28022706     0.86900
C1542       C  0.86962279  0.22686412  0.39247493     0.87500
C1543       C  0.85545380  0.12527772  0.39289337     0.87500
H1544       H  0.77808307  0.09571787  0.25420843    -0.06600
O1545       O  0.78404618  0.17138781  0.27136166    -0.75600
Mg1546     Mg  0.87377836  0.11893450  0.31274674     1.58000
H1547       H  0.82194365  0.22121178  0.25403301    -0.06600
C1548       C  0.96451115  0.28463741  0.32042283     0.92500
O1549       O  0.95717026  0.18448430  0.36096444    -0.82900
C1550       C  0.95292588  0.15345128  0.35583685     0.92600
O1551       O  0.81085051  0.26809479  0.35535596    -0.82900
Mg1552     Mg  0.74722026  0.12394227  0.30916036     1.58200
O1553       O  0.96105557  0.25497045  0.33123176    -0.81200
O1554       O  0.72682941  0.03994091  0.35707683    -0.82900
O1555       O  0.62582831  0.26962823  0.69118398    -0.88500
C1556       C  0.70140572  0.30642807  0.60803269     0.87600
Mg1557     Mg  0.58062225  0.27794366  0.69078516     1.58100
O1558       O  0.72867079  0.35433846  0.69209983    -0.88200
O1559       O  0.67094587  0.27893136  0.72656804    -0.75500
C1560       C  0.64907809  0.44927928  0.65409967     0.92600
O1561       O  0.61325485  0.27686949  0.60373435    -0.75300
O1562       O  0.62052548  0.41962864  0.64802509    -0.82800
Mg1563     Mg  0.63471420  0.24832917  0.64059919     1.58000
C1564       C  0.78293278  0.46593771  0.68698813     0.92500
O1565       O  0.65322153  0.21380594  0.67013759    -0.81100
H1566       H  0.73891758  0.35657272  0.74642138    -0.06500
C1567       C  0.69511061  0.39727059  0.61182048     0.87500
O1568       O  0.60892054  0.32605008  0.73002840    -0.75600
O1569       O  0.68842290  0.29362795  0.63875336    -0.88400
O1570       O  0.78560226  0.43915301  0.67668366    -0.81200
C1571       C  0.80067929  0.35057815  0.64882952     0.92700
C1572       C  0.68301479  0.21586386  0.67818697     0.92500
Mg1573     Mg  0.69680243  0.41651621  0.69345559     1.58000
O1574       O  0.67841288  0.45142219  0.66437962    -0.81100
O1575       O  0.71753751  0.38707294  0.73013139    -0.75400
O1576       O  0.77271205  0.32041523  0.65541234    -0.81200
O1577       O  0.57845768  0.20045230  0.64366828    -0.82900
O1578       O  0.55920183  0.34470582  0.67571635    -0.81200
C1579       C  0.72920350  0.36573053  0.72366075     0.86900
O1580       O  0.64331083  0.37158320  0.69421110    -0.88400
O1581       O  0.70675293  0.39601722  0.64272820    -0.88500
O1582       O  0.66174229  0.38540088  0.60649225    -0.75500
Mg1583     Mg  0.72028156  0.30119505  0.68768177     1.58000
O1584       O  0.79990267  0.37953319  0.64607323    -0.82900
H1585       H  0.61929838  0.25707367  0.74518496    -0.06600
O1586       O  0.60323620  0.31044971  0.64162444    -0.88200
H1587       H  0.59142873  0.30700720  0.58761327    -0.06500
H1588       H  0.63892241  0.37717950  0.74874468    -0.06600
C1589       C  0.60177212  0.29834082  0.61023176     0.86900
C1590       C  0.63761555  0.26771374  0.72178116     0.87500
C1591       C  0.63056346  0.35932463  0.72513291     0.87500
H1592       H  0.71361766  0.40769151  0.58854749    -0.06600
O1593       O  0.72370776  0.33971899  0.60389762    -0.75600
Mg1594     Mg  0.61202381  0.36368773  0.64462787     1.58000
H1595       H  0.69303593  0.28905068  0.58403651    -0.06600
C1596       C  0.54858347  0.19916617  0.64924068     0.92500
O1597       O  0.53274962  0.28645681  0.68988361    -0.82900
C1598       C  0.53183733  0.31522031  0.68553325     0.92600
O1599       O  0.71202600  0.24547284  0.68270615    -0.82900
Mg1600     Mg  0.75190163  0.38772027  0.64380591     1.58200
O1601       O  0.54628153  0.22633821  0.65872802    -0.81200
O1602       O  0.75289212  0.46436396  0.69215301    -0.82900
C1603       C  0.97253590  0.31821461  0.68399209    -0.13400
C1604       C  0.49825252  0.31445763  0.68828413    -0.15000
C1605       C  0.86022326  0.34811567  0.65343480    -0.13400
C1606       C  0.83451787  0.35168207  0.64805681    -0.15000
C1607       C  0.86343101  0.34930691  0.73850029    -0.13500
C1608       C  0.89794918  0.37127555  0.72324180     0.08700
C1609       C  0.91882290  0.40668691  0.73648842    -0.13500
C1610       C  0.90507063  0.41962528  0.76436947    -0.13500
C1611       C  0.86974407  0.39779067  0.77835332     0.08700
C1612       C  0.84935265  0.36248065  0.76499821    -0.13500
H1613       H  0.84691528  0.32178372  0.72929497     0.12700
H1614       H  0.94559436  0.42421461  0.72533073     0.12700
H1615       H  0.92179429  0.44668950  0.77464868     0.12700
H1616       H  0.82209710  0.34488000  0.77500160     0.12700
C1617       C  0.87147072  0.29878277  0.57270800    -0.13500
C1618       C  0.86370147  0.29428905  0.61076062     0.08700
C1619       C  0.82743340  0.27287812  0.62233617    -0.13500
C1620       C  0.79932692  0.25860110  0.59646702    -0.13500
C1621       C  0.80709352  0.26377575  0.55837281     0.08700
C1622       C  0.84354328  0.28305205  0.54685256    -0.13500
H1623       H  0.89896787  0.31555778  0.56299235     0.12700
H1624       H  0.82076986  0.26924094  0.65164379     0.12700
H1625       H  0.77163681  0.24487486  0.60627871     0.12700
H1626       H  0.85027583  0.28765719  0.51759336     0.12700
C1627       C  0.97030377  0.31595477  0.60041733    -0.13500
C1628       C  0.93504307  0.29489559  0.61432798     0.08700
C1629       C  0.91356383  0.25986462  0.60030180    -0.13500
C1630       C  0.92723154  0.24665207  0.57261775    -0.13500
C1631       C  0.96320532  0.26754811  0.55994859     0.08700
C1632       C  0.98446757  0.30219007  0.57473335    -0.13500
H1633       H  0.48739518  0.34320255  0.61015089     0.12700
H1634       H  0.88628302  0.24291187  0.61049302     0.12700
H1635       H  0.90982349  0.22015749  0.56129711     0.12700
H1636       H  0.51233001  0.31904637  0.56611280     0.12700
C1637       C  0.81540128  0.49976746  0.68921496    -0.13400
C1638       C  0.84450694  0.02606233  0.68428793    -0.15000
C1639       C  0.98666013  0.13952906  0.65356736    -0.13400
C1640       C  0.51590089  0.16542790  0.64829028    -0.15000
C1641       C  0.88759670  0.99412192  0.71378364    -0.13500
C1642       C  0.90206390  0.02978362  0.72626465     0.08700
C1643       C  0.90332238  0.53614510  0.76458108    -0.13500
C1644       C  0.88896865  0.50729971  0.78960987    -0.13500
C1645       C  0.87166478  0.47141321  0.77697854     0.08700
C1646       C  0.87151224  0.46525058  0.73873629    -0.13500
H1647       H  0.88606868  0.98856375  0.68431712     0.12700
H1648       H  0.91377040  0.56316349  0.77498082     0.12700
H1649       H  0.88958983  0.51295375  0.81897734     0.12700
H1650       H  0.85756561  0.43818607  0.72784002     0.12700
C1651       C  0.84535539  0.02785280  0.60073201    -0.13500
C1652       C  0.85865175  0.06290444  0.61407798     0.08700
C1653       C  0.84425215  0.08340839  0.59955323    -0.13500
C1654       C  0.81736349  0.06896514  0.57199503    -0.13500
C1655       C  0.80310170  0.03316372  0.56000164     0.08700
C1656       C  0.81742744  0.01291919  0.57512501    -0.13500
H1657       H  0.85605996  0.51143577  0.61103602     0.12700
H1658       H  0.85391140  0.11050787  0.60928160     0.12700
H1659       H  0.80756427  0.08561277  0.56030947     0.12700
H1660       H  0.80697210  0.48516818  0.56704764     0.12700
C1661       C  0.94505973  0.17120647  0.62089947    -0.13500
C1662       C  0.92929699  0.13505898  0.60975252     0.08700
C1663       C  0.92547018  0.12743088  0.57166041    -0.13500
C1664       C  0.93797987  0.15533881  0.54549637    -0.13500
C1665       C  0.95672103  0.19173835  0.55660417     0.08700
C1666       C  0.95995700  0.19912700  0.59484140    -0.13500
H1667       H  0.94841578  0.17793950  0.65013469     0.12700
H1668       H  0.91390846  0.10002091  0.56206635     0.12700
H1669       H  0.43446283  0.14838250  0.51634371     0.12700
H1670       H  0.97532117  0.22641596  0.60488253     0.12700
C1671       C  0.00579631  0.39352745  0.71382320    -0.13500
C1672       C  0.96967001  0.37263920  0.72597660     0.08700
C1673       C  0.96250966  0.36821018  0.76414600    -0.13500
C1674       C  0.49092530  0.38329262  0.78953409    -0.13500
C1675       C  0.52721280  0.40180032  0.77737324     0.08700
C1676       C  0.53431253  0.40698150  0.73914677    -0.13500
H1677       H  0.01199296  0.39708974  0.68440970     0.12700
H1678       H  0.93511486  0.35182484  0.77429695     0.12700
H1679       H  0.48461609  0.37885143  0.81888343     0.12700
H1680       H  0.56178182  0.42008223  0.72873379     0.12700
C1681       C  0.98748160  0.08174031  0.73628833    -0.13500
C1682       C  0.97211641  0.10196433  0.72346805     0.08700
C1683       C  0.48420053  0.13611759  0.73870331    -0.13500
C1684       C  0.51193004  0.15055551  0.76463368    -0.13500
C1685       C  0.52781928  0.13088427  0.77744897     0.08700
C1686       C  0.01466345  0.09583705  0.76358797    -0.13500
H1687       H  0.97861994  0.05526687  0.72512168     0.12700
H1688       H  0.47257781  0.15213969  0.72976785     0.12700
H1689       H  0.52126774  0.17757894  0.77448561     0.12700
H1690       H  0.02563806  0.07957353  0.77349695     0.12700
C1691       C  0.68373048  0.18318597  0.67939615    -0.13400
C1692       C  0.68008893  0.15383637  0.67575814    -0.15000
C1693       C  0.65126206  0.01104426  0.65569092    -0.13400
C1694       C  0.64808611  0.48183722  0.65225563    -0.15000
C1695       C  0.57858637  0.48684730  0.76382069    -0.13500
C1696       C  0.60067236  0.47448072  0.77908992     0.08700
C1697       C  0.63672567  0.49050210  0.76686971    -0.13500
C1698       C  0.65024876  0.01743289  0.74013117    -0.13500
C1699       C  0.62804138  0.02867342  0.72345550     0.08700
C1700       C  0.59200456  0.01336263  0.73575891    -0.13500
H1701       H  0.55095823  0.47575598  0.77322390     0.12700
H1702       H  0.65458575  0.48176691  0.77779347     0.12700
H1703       H  0.67820787  0.02901574  0.73155655     0.12700
H1704       H  0.57431799  0.02165257  0.72347953     0.12700
C1705       C  0.60686109  0.11430952  0.71108136    -0.13500
C1706       C  0.62763203  0.09913086  0.72299980     0.08700
C1707       C  0.63258566  0.09723833  0.76116268    -0.13500
C1708       C  0.61820411  0.11129458  0.78664092    -0.13500
C1709       C  0.59995081  0.12910850  0.77461493     0.08700
C1710       C  0.59424087  0.13020560  0.73643586    -0.13500
H1711       H  0.60266178  0.11614789  0.68172559     0.12700
H1712       H  0.64885091  0.08629547  0.77125008     0.12700
H1713       H  0.62301851  0.10993350  0.81592439     0.12700
H1714       H  0.58129614  0.14449590  0.72602512     0.12700
C1715       C  0.73697187  0.03491768  0.59560973    -0.13500
C1716       C  0.73261907  0.03739306  0.55732846     0.08700
C1717       C  0.71518218  0.05597161  0.54526756    -0.13500
C1718       C  0.70002997  0.06917259  0.57075450    -0.13500
C1719       C  0.70391335  0.06610522  0.60894758     0.08700
C1720       C  0.72419183  0.05050463  0.62097481    -0.13500
H1721       H  0.74899184  0.01981490  0.60614697     0.12700
H1722       H  0.71165052  0.55869855  0.51590819     0.12700
H1723       H  0.68419738  0.08056119  0.56058169     0.12700
H1724       H  0.72770069  0.04793080  0.65035504     0.12700
C1725       C  0.68340235  0.14731380  0.59019962    -0.13500
C1726       C  0.70504435  0.13664870  0.60903011     0.08700
C1727       C  0.74167906  0.15222901  0.59876649    -0.13500
C1728       C  0.75629507  0.17851475  0.57051007    -0.13500
C1729       C  0.73468949  0.19023924  0.55288994     0.08700
C1730       C  0.69801729  0.17389050  0.56300137    -0.13500
H1731       H  0.65504054  0.13546467  0.59723072     0.12700
H1732       H  0.75888781  0.14424484  0.61271180     0.12700
H1733       H  0.78443472  0.18997028  0.56284459     0.12700
H1734       H  0.68053215  0.18219117  0.55020128     0.12700
C1735       C  0.99180521  0.15383898  0.99959273    -0.13400
C1736       C  0.99572386  0.18325154  0.99921789    -0.15000
C1737       C  0.00734214  0.31922530  0.99985110    -0.13400
C1738       C  0.00815333  0.34703661  0.99437030    -0.15000
C1739       C  0.57477296  0.32209347  0.93085114    -0.13500
C1740       C  0.53775069  0.30208920  0.93986003     0.08700
C1741       C  0.51372330  0.30887271  0.92002802    -0.13500
C1742       C  0.52636559  0.33759337  0.89541323    -0.13500
C1743       C  0.56341876  0.35888049  0.88690221     0.08700
C1744       C  0.58734720  0.34952142  0.90368606    -0.13500
H1745       H  0.59389037  0.31703931  0.94530429     0.12700
H1746       H  0.48501904  0.29354385  0.92595218     0.12700
H1747       H  0.50675603  0.34361419  0.88374056     0.12700
H1748       H  0.61579483  0.36396886  0.89669004     0.12700
C1749       C  0.53560854  0.23579092  0.90646019    -0.13500
C1750       C  0.54172304  0.23399823  0.94445506     0.08700
C1751       C  0.56350373  0.21936823  0.95473149    -0.13500
C1752       C  0.57626390  0.20448013  0.92811813    -0.13500
C1753       C  0.57022476  0.20651199  0.89011237     0.08700
C1754       C  0.55060279  0.22340313  0.87978651    -0.13500
H1755       H  0.01815700  0.24560912  0.89718874     0.12700
H1756       H  0.56902107  0.21768684  0.98373476     0.12700
H1757       H  0.59016945  0.19075072  0.93737455     0.12700
H1758       H  0.54530058  0.22549259  0.85080127     0.12700
C1759       C  0.68210642  0.18414814  0.99470878    -0.13400
C1760       C  0.65374992  0.15845375  0.98667565    -0.15000
C1761       C  0.84468545  0.33966125  0.00926250    -0.13400
C1762       C  0.81627802  0.31282295  0.00535165    -0.15000
C1763       C  0.76850115  0.29905236  0.90736268    -0.13500
C1764       C  0.76888896  0.30622315  0.94541185     0.08700
C1765       C  0.78125471  0.34213324  0.95612906    -0.13500
C1766       C  0.79516315  0.37015332  0.92978386    -0.13500
C1767       C  0.79428488  0.36268089  0.89167082     0.08700
C1768       C  0.77950904  0.32644972  0.88101896    -0.13500
H1769       H  0.76037270  0.27224524  0.89778136     0.12700
H1770       H  0.78156338  0.34875710  0.98515745     0.12700
H1771       H  0.80723333  0.39761622  0.93933027     0.12700
H1772       H  0.77812205  0.31938120  0.85198253     0.12700
C1773       C  0.69396948  0.20507861  0.91609075    -0.13500
C1774       C  0.70113184  0.23487463  0.93781641     0.08700
C1775       C  0.68219560  0.25303841  0.93024919    -0.13500
C1776       C  0.65522755  0.24013567  0.90268175    -0.13500
C1777       C  0.64498304  0.20745457  0.88424206     0.08700
C1778       C  0.66536106  0.19061218  0.89132338    -0.13500
H1779       H  0.70864652  0.19100662  0.92076665     0.12700
H1780       H  0.68774978  0.27662633  0.94608215     0.12700
H1781       H  0.64177814  0.25512451  0.89671911     0.12700
H1782       H  0.65867030  0.16529587  0.87850158     0.12700
C1783       C  0.81331813  0.49585661  0.99272366    -0.13400
C1784       C  0.83954173  0.49421495  0.98418325    -0.15000
C1785       C  0.68651693  0.50504099  0.00599880    -0.13400
C1786       C  0.66062503  0.50841742  0.00987082    -0.15000
C1787       C  0.62677279  0.42766611  0.93047928    -0.13500
C1788       C  0.63476748  0.43486914  0.89249626     0.08700
C1789       C  0.67127966  0.45585519  0.88172159    -0.13500
C1790       C  0.69875592  0.47066488  0.90802048    -0.13500
C1791       C  0.69101631  0.46294126  0.94587610     0.08700
C1792       C  0.65467940  0.44037685  0.95667619    -0.13500
H1793       H  0.59903024  0.41265588  0.93999516     0.12700
H1794       H  0.67857208  0.46205124  0.85273065     0.12700
H1795       H  0.72596782  0.98887711  0.89868336     0.12700
H1796       H  0.64775600  0.43372612  0.98565858     0.12700
C1797       C  0.75787422  0.41210381  0.90420838    -0.13500
C1798       C  0.79059712  0.43523130  0.88549415     0.08700
C1799       C  0.80616341  0.47249184  0.89162937    -0.13500
C1800       C  0.79038590  0.48607671  0.91541714    -0.13500
C1801       C  0.76078487  0.46305049  0.93758979     0.08700
C1802       C  0.74378846  0.42580706  0.93107339    -0.13500
H1803       H  0.74380811  0.38350255  0.89904666     0.12700
H1804       H  0.83158995  0.49171582  0.87890380     0.12700
H1805       H  0.80372524  0.01495035  0.91939273     0.12700
H1806       H  0.72042567  0.40742122  0.94739139     0.12700
C1807       C  0.95659465  0.28188874  0.12302715    -0.13500
C1808       C  0.93495810  0.29633897  0.11152626     0.08700
C1809       C  0.92842360  0.29641161  0.07337153    -0.13500
C1810       C  0.94271735  0.28215295  0.04782078    -0.13500
C1811       C  0.96670781  0.27050179  0.05920230     0.08700
C1812       C  0.97333223  0.27055316  0.09726365    -0.13500
H1813       H  0.96191591  0.28072520  0.15219084     0.12700
H1814       H  0.91304348  0.30823924  0.06307066     0.12700
H1815       H  0.93640962  0.28187244  0.01871460     0.12700
H1816       H  0.49171569  0.26206155  0.10713474     0.12700
C1817       C  0.83798417  0.31090503  0.10543423    -0.13500
C1818       C  0.85865094  0.29448002  0.11324434     0.08700
C1819       C  0.84743064  0.26070237  0.09668362    -0.13500
C1820       C  0.81855794  0.24582168  0.07092355    -0.13500
C1821       C  0.79866439  0.26310862  0.06343157     0.08700
C1822       C  0.80738605  0.29439134  0.08329737    -0.13500
H1823       H  0.84553668  0.33719568  0.11626434     0.12700
H1824       H  0.86130887  0.24618308  0.10293923     0.12700
H1825       H  0.81229850  0.22138677  0.05636989     0.12700
H1826       H  0.79245093  0.30820200  0.07859851     0.12700
C1827       C  0.81541268  0.47036849  0.32004705    -0.13400
C1828       C  0.81486233  0.99777657  0.31619151    -0.15000
C1829       C  0.84533926  0.32986117  0.35146164    -0.13400
C1830       C  0.84334092  0.35657379  0.34760981    -0.15000
C1831       C  0.75672382  0.41471358  0.40070644    -0.13500
C1832       C  0.79320007  0.43333351  0.38960831     0.08700
C1833       C  0.81632608  0.46679975  0.40563776    -0.13500
C1834       C  0.80337484  0.48160460  0.43150655    -0.13500
C1835       C  0.76741971  0.46229928  0.44439051     0.08700
C1836       C  0.74446962  0.42806135  0.42936102    -0.13500
H1837       H  0.73741929  0.39043314  0.38688431     0.12700
H1838       H  0.84433403  0.98218099  0.39693363     0.12700
H1839       H  0.82178655  0.00845123  0.44145261     0.12700
H1840       H  0.71683294  0.41206003  0.43890950     0.12700
C1841       C  0.82316146  0.36409342  0.42335965    -0.13500
C1842       C  0.79949149  0.36766224  0.39945358     0.08700
C1843       C  0.76220135  0.34367753  0.40371713    -0.13500
C1844       C  0.74912840  0.31728412  0.43163841    -0.13500
C1845       C  0.77303543  0.30980735  0.45099107     0.08700
C1846       C  0.81044544  0.33440692  0.44678293    -0.13500
H1847       H  0.85204874  0.38205000  0.42080101     0.12700
H1848       H  0.74317893  0.34383822  0.38432746     0.12700
H1849       H  0.72030573  0.30123323  0.43605140     0.12700
H1850       H  0.83048032  0.33028876  0.46053382     0.12700
C1851       C  0.90378709  0.41709155  0.26572500    -0.13500
C1852       C  0.86826868  0.39598765  0.27934249     0.08700
C1853       C  0.84723570  0.36080119  0.26612441    -0.13500
C1854       C  0.86173538  0.34600474  0.24231650    -0.13500
C1855       C  0.89670808  0.36690525  0.22751746     0.08700
C1856       C  0.91753681  0.40296717  0.23912760    -0.13500
H1857       H  0.92072136  0.44431739  0.27548851     0.12700
H1858       H  0.81960729  0.34402687  0.27555109     0.12700
H1859       H  0.84500856  0.31798677  0.23490012     0.12700
H1860       H  0.94431256  0.42008876  0.22778896     0.12700
C1861       C  0.63755127  0.48670280  0.35162262    -0.13400
C1862       C  0.66490541  0.01505668  0.35485766    -0.15000
C1863       C  0.99979700  0.31522730  0.31790628    -0.13400
C1864       C  0.52649251  0.34409377  0.32134959    -0.15000
C1865       C  0.52868685  0.34547355  0.40479766    -0.13500
C1866       C  0.56381326  0.35910831  0.39084613     0.08700
C1867       C  0.58497818  0.34516612  0.40480038    -0.13500
C1868       C  0.57086471  0.31802683  0.43221511    -0.13500
C1869       C  0.53474091  0.30304385  0.44433229     0.08700
C1870       C  0.51404723  0.31724185  0.43001688    -0.13500
H1871       H  0.51198218  0.35613321  0.39520389     0.12700
H1872       H  0.61225207  0.35529451  0.39467479     0.12700
H1873       H  0.58786117  0.30841242  0.44347878     0.12700
H1874       H  0.48622930  0.30657439  0.43864908     0.12700
C1875       C  0.65579452  0.43988004  0.45866065    -0.13500
C1876       C  0.69225271  0.45862611  0.44684075     0.08700
C1877       C  0.69938333  0.46175918  0.40852571    -0.13500
C1878       C  0.67107994  0.44633792  0.38298924    -0.13500
C1879       C  0.63480142  0.43024584  0.39478922     0.08700
C1880       C  0.62745960  0.42674566  0.43299871    -0.13500
H1881       H  0.64916918  0.43675669  0.48796481     0.12700
H1882       H  0.72679759  0.47703985  0.39813867     0.12700
H1883       H  0.67754973  0.44948616  0.35363177     0.12700
H1884       H  0.59993876  0.41495290  0.44301960     0.12700
C1885       C  0.99287891  0.38390025  0.28820431    -0.13500
C1886       C  0.52939460  0.40055779  0.27716787     0.08700
C1887       C  0.53741710  0.40535633  0.23906822    -0.13500
C1888       C  0.50956617  0.39291417  0.21280240    -0.13500
C1889       C  0.97286621  0.37353390  0.22377374     0.08700
C1890       C  0.96508348  0.36937250  0.26201870    -0.13500
H1891       H  0.98580217  0.37985307  0.31741078     0.12700
H1892       H  0.56513941  0.41775285  0.22953524     0.12700
H1893       H  0.51683092  0.39715758  0.18367352     0.12700
H1894       H  0.93756189  0.35362032  0.27193831     0.12700
C1895       C  0.97157138  0.15289374  0.10011288    -0.13500
C1896       C  0.93667438  0.14045496  0.11448270     0.08700
C1897       C  0.92084058  0.16171083  0.10712549    -0.13500
C1898       C  0.93548207  0.18903880  0.07985714    -0.13500
C1899       C  0.96992838  0.20047955  0.06440873     0.08700
C1900       C  0.98874738  0.18378218  0.07799438    -0.13500
H1901       H  0.98635024  0.13945018  0.10736617     0.12700
H1902       H  0.89767263  0.15796185  0.12285739     0.12700
H1903       H  0.92007527  0.20148766  0.07160688     0.12700
H1904       H  0.51634418  0.19323168  0.06933434     0.12700
C1905       C  0.85010402  0.08259431  0.09252813    -0.13500
C1906       C  0.86358845  0.06239558  0.10952941     0.08700
C1907       C  0.84771948  0.02590495  0.09892812    -0.13500
C1908       C  0.81828143  0.01013545  0.07465967    -0.13500
C1909       C  0.80564691  0.03094026  0.05737700     0.08700
C1910       C  0.82341315  0.06773441  0.06521960    -0.13500
H1911       H  0.85831573  0.10921636  0.10089295     0.12700
H1912       H  0.85727482  0.00895979  0.11039512     0.12700
H1913       H  0.80582924  0.48162940  0.06886399     0.12700
H1914       H  0.81697416  0.08532913  0.05016997     0.12700
C1915       C  0.88975400  0.00351600  0.28898336    -0.13500
C1916       C  0.86946432  0.46785486  0.27644540     0.08700
C1917       C  0.86585555  0.46189122  0.23805937    -0.13500
C1918       C  0.88087670  0.49101382  0.21316993    -0.13500
C1919       C  0.89830205  0.02686179  0.22581399     0.08700
C1920       C  0.90265029  0.03257367  0.26429190    -0.13500
H1921       H  0.89297977  0.00897990  0.31849528     0.12700
H1922       H  0.85022871  0.43484837  0.22733330     0.12700
H1923       H  0.87737777  0.48534892  0.18372534     0.12700
H1924       H  0.91466902  0.05940475  0.27559961     0.12700
C1925       C  0.71662114  0.16931935  0.12019646    -0.13500
C1926       C  0.69936708  0.13303374  0.10895326     0.08700
C1927       C  0.69813674  0.12594095  0.07073813    -0.13500
C1928       C  0.71438828  0.15426492  0.04490906    -0.13500
C1929       C  0.72908854  0.19044923  0.05605721     0.08700
C1930       C  0.73003899  0.19736736  0.09424478    -0.13500
H1931       H  0.71839232  0.17607555  0.14935365     0.12700
H1932       H  0.68445014  0.09853338  0.06076973     0.12700
H1933       H  0.71395368  0.14770422  0.01584716     0.12700
H1934       H  0.74013048  0.22443287  0.10423247     0.12700
C1935       C  0.68713339  0.02178135  0.10809751    -0.13500
C1936       C  0.70095605  0.05903195  0.11354855     0.08700
C1937       C  0.73337610  0.08265856  0.09486409    -0.13500
C1938       C  0.74847795  0.06958757  0.06865533    -0.13500
C1939       C  0.73528056  0.03242796  0.06482821     0.08700
C1940       C  0.70525183  0.00893223  0.08636287    -0.13500
H1941       H  0.66148772  0.00190160  0.11985022     0.12700
H1942       H  0.74641470  0.11131534  0.09908915     0.12700
H1943       H  0.76907141  0.08868173  0.05019340     0.12700
H1944       H  0.69317812  0.98016106  0.08284545     0.12700
C1945       C  0.59166331  0.01228951  0.24028401    -0.13500
C1946       C  0.62782480  0.02773950  0.22810804     0.08700
C1947       C  0.64948754  0.01530231  0.24387741    -0.13500
C1948       C  0.63530486  0.48715769  0.26910838    -0.13500
C1949       C  0.59980603  0.47239077  0.28240319     0.08700
C1950       C  0.57808645  0.48554756  0.26809220    -0.13500
H1951       H  0.57408380  0.02090498  0.22839769     0.12700
H1952       H  0.67760700  0.02689279  0.23596810     0.12700
H1953       H  0.65258575  0.47730542  0.27905467     0.12700
H1954       H  0.55063127  0.47480135  0.27793143     0.12700
C1955       C  0.65344060  0.17739197  0.31979310    -0.13400
C1956       C  0.68162492  0.17859479  0.31418859    -0.15000
C1957       C  0.98392359  0.14943558  0.35848046    -0.13400
C1958       C  0.51263648  0.15125059  0.35412100    -0.15000
C1959       C  0.55919561  0.22788649  0.38381048    -0.13500
C1960       C  0.57046772  0.20395456  0.39607915     0.08700
C1961       C  0.56524201  0.19413761  0.43365972    -0.13500
C1962       C  0.55177159  0.20943858  0.45853885    -0.13500
C1963       C  0.53804929  0.23128643  0.44612622     0.08700
C1964       C  0.54162381  0.23989407  0.40802613    -0.13500
H1965       H  0.56078113  0.23440977  0.35457327     0.12700
H1966       H  0.56870123  0.17264803  0.44390407     0.12700
H1967       H  0.54988561  0.20196268  0.48748773     0.12700
H1968       H  0.52959099  0.25453613  0.39638050     0.12700
C1969       C  0.63833395  0.19177893  0.42427667    -0.13500
C1970       C  0.64338421  0.20604877  0.38844646     0.08700
C1971       C  0.67888661  0.23257346  0.37821667    -0.13500
C1972       C  0.70804558  0.24294713  0.40285523    -0.13500
C1973       C  0.70183000  0.23138349  0.44017721     0.08700
C1974       C  0.66598255  0.20614325  0.45037471    -0.13500
H1975       H  0.61357029  0.16783585  0.43167276     0.12700
H1976       H  0.68448128  0.24350210  0.35034970     0.12700
H1977       H  0.73527181  0.26016154  0.39270001     0.12700
H1978       H  0.65939322  0.19560705  0.47836763     0.12700
C1979       C  0.01052166  0.09365820  0.26852813    -0.13500
C1980       C  0.52517629  0.12850690  0.28327804     0.08700
C1981       C  0.51146716  0.15019550  0.27082458    -0.13500
C1982       C  0.48294343  0.13718286  0.24590118    -0.13500
C1983       C  0.96851369  0.10274940  0.23035367     0.08700
C1984       C  0.98310809  0.08126198  0.24153195    -0.13500
H1985       H  0.02043329  0.07623036  0.27759044     0.12700
H1986       H  0.52248217  0.17734030  0.28114123     0.12700
H1987       H  0.47238573  0.15449234  0.23839631     0.12700
H1988       H  0.97331586  0.05495291  0.22949794     0.12700
C1989       C  0.59202382  0.13128017  0.23839562    -0.13500
C1990       C  0.59531042  0.12659540  0.27644052     0.08700
C1991       C  0.61029763  0.10541993  0.28708286    -0.13500
C1992       C  0.62533091  0.09279287  0.26079664    -0.13500
C1993       C  0.62238850  0.09740581  0.22256888     0.08700
C1994       C  0.60439864  0.11596044  0.21184092    -0.13500
H1995       H  0.58093049  0.14766703  0.22919800     0.12700
H1996       H  0.61332594  0.10141381  0.31623887     0.12700
H1997       H  0.64051196  0.08069298  0.27082179     0.12700
H1998       H  0.60108026  0.11989353  0.18277766     0.12700
C1999       C  0.61800732  0.67128329  0.32876113     0.02200
C2000       C  0.58880186  0.64780699  0.30557510     0.02200
C2001       C  0.55427708  0.64362092  0.31217530     0.02200
C2002       C  0.54882191  0.65898476  0.34470582     0.02200
C2003       C  0.57792211  0.68267589  0.36774191     0.02200
C2004       C  0.61309797  0.68799157  0.36059064     0.02200
C2005       C  0.64079396  0.58616653  0.19406208     0.02200
C2006       C  0.64350476  0.55470700  0.19714346     0.02100
C2007       C  0.66348938  0.54831557  0.17019266    -0.18400
C2008       C  0.68153603  0.57133646  0.13994376     0.02200
C2009       C  0.67993587  0.60375758  0.13738276     0.02100
C2010       C  0.65893815  0.60968283  0.16405264    -0.18400
H2011       H  0.65753629  0.63401864  0.16188331     0.04200
H2012       H  0.66567408  0.52458636  0.17377156     0.04200
C2013       C  0.90819150  0.55742120  0.19903503     0.02200
C2014       C  0.94013309  0.59167910  0.20092972     0.02100
C2015       C  0.94586373  0.61757985  0.17360939    -0.18400
C2016       C  0.92235691  0.61106749  0.14354621     0.02200
C2017       C  0.89019199  0.57640249  0.14136461     0.02100
C2018       C  0.88342377  0.55161479  0.17048257    -0.18400
H2019       H  0.85790186  0.52656942  0.17082318     0.04200
H2020       H  0.97048853  0.64348007  0.17479686     0.04200
C2021       C  0.55410874  0.88057942  0.32951562     0.02200
C2022       C  0.55790577  0.90868620  0.30590757     0.02200
C2023       C  0.58739463  0.94380423  0.31170764     0.02200
C2024       C  0.60958517  0.95042135  0.34335763     0.02200
C2025       C  0.60589868  0.92227374  0.36669266     0.02200
C2026       C  0.57629523  0.88730309  0.36117464     0.02200
C2027       C  0.82320074  0.94208644  0.32756347     0.02200
C2028       C  0.84763497  0.93830297  0.30390684     0.02200
C2029       C  0.85214560  0.90814371  0.30887835     0.02200
C2030       C  0.83667376  0.88599871  0.34079241     0.02200
C2031       C  0.81453903  0.89171347  0.36609936     0.02200
C2032       C  0.80805312  0.92036605  0.35958348     0.02200
C2033       C  0.94350651  0.85434168  0.19535927     0.02200
C2034       C  0.90874697  0.85075187  0.19775524     0.02100
C2035       C  0.88289556  0.83014060  0.17073405    -0.18400
C2036       C  0.88917748  0.81266044  0.14095254     0.02200
C2037       C  0.92366080  0.81487657  0.13938475    -0.00900
C2038       C  0.94999385  0.83641750  0.16613010    -0.18400
H2039       H  0.97635551  0.83881895  0.16452911     0.04200
H2040       H  0.85653952  0.82759383  0.17317048     0.04200
C2041       C  0.78016601  0.99636685  0.99798203     0.02200
C2042       C  0.77616150  0.51454445  0.02890739     0.02200
C2043       C  0.74423901  0.51679593  0.03169613     0.02200
C2044       C  0.71734908  0.00025184  0.00401236     0.02200
C2045       C  0.72051049  0.98035139  0.97425108     0.02200
C2046       C  0.75276253  0.97908124  0.97084587     0.02200
C2047       C  0.78158269  0.78073211  0.00346344     0.02200
C2048       C  0.77305113  0.75370348  0.03093851     0.02200
C2049       C  0.74020375  0.72035087  0.02780148     0.02200
C2050       C  0.71674149  0.71621690  0.99784733     0.02200
C2051       C  0.72560883  0.74340349  0.97059832     0.02200
C2052       C  0.75812910  0.77657120  0.97376515     0.02200
C2053       C  0.00249480  0.71912857  0.00232148     0.02200
C2054       C  0.98611928  0.72734856  0.03243221     0.02200
C2055       C  0.98618573  0.76046075  0.03090598     0.02200
C2056       C  0.00526754  0.78480161  0.00130326     0.02200
C2057       C  0.52300822  0.77685224  0.97254791     0.02200
C2058       C  0.52268192  0.74390844  0.97361798     0.02200
C2059       C  0.65969564  0.54766951  0.66180860     0.02200
C2060       C  0.68342071  0.57479835  0.63674967     0.02200
C2061       C  0.68802674  0.60958891  0.63963264     0.02200
C2062       C  0.67157206  0.61724279  0.66973935     0.02200
C2063       C  0.64792353  0.59017781  0.69496596     0.02200
C2064       C  0.64369359  0.55544314  0.69230014     0.02200
C2065       C  0.57981657  0.68760976  0.86094951     0.02200
C2066       C  0.61415236  0.68994923  0.85698158     0.02100
C2067       C  0.61912348  0.67212754  0.82655470    -0.18400
C2068       C  0.59131551  0.64976539  0.80212445     0.02200
C2069       C  0.55746198  0.64800263  0.80550474     0.02100
C2070       C  0.55240377  0.66635972  0.83526711    -0.18400
H2071       H  0.52601908  0.66374157  0.83864293     0.04200
H2072       H  0.64563261  0.67551654  0.82159433     0.04200
C2073       C  0.60595045  0.92451780  0.86387103     0.02200
C2074       C  0.57495412  0.88963166  0.85996308     0.02100
C2075       C  0.55164081  0.88394901  0.82988252    -0.18400
C2076       C  0.55646258  0.91126544  0.80503155     0.02200
C2077       C  0.58794225  0.94553177  0.80812095     0.02100
C2078       C  0.61110379  0.95159378  0.83827454    -0.18400
H2079       H  0.63416659  0.97836391  0.84165222     0.04200
H2080       H  0.52883799  0.85725211  0.82538436     0.04200
C2081       C  0.88079617  0.55412668  0.67542619     0.02200
C2082       C  0.90934881  0.55874770  0.69872441     0.02200
C2083       C  0.94395275  0.58929913  0.69369016     0.02200
C2084       C  0.95013912  0.61159674  0.66225084     0.02200
C2085       C  0.92169208  0.60665290  0.63839318     0.02200
C2086       C  0.88693888  0.57613790  0.64374375     0.02200
C2087       C  0.94499988  0.82709151  0.67507065     0.02200
C2088       C  0.94082962  0.85136360  0.69823298     0.02200
C2089       C  0.91050787  0.85576152  0.69329790     0.02200
C2090       C  0.88796572  0.83949142  0.66213180     0.02200
C2091       C  0.89230579  0.81540662  0.63877432     0.02200
C2092       C  0.92257660  0.81090402  0.64382055     0.02200
C2093       C  0.81261654  0.89156957  0.86260161     0.02200
C2094       C  0.80916779  0.92278203  0.85852012     0.02100
C2095       C  0.82706202  0.94582713  0.82806078    -0.18400
C2096       C  0.85039939  0.94149198  0.80384360     0.02200
C2097       C  0.85276777  0.90997274  0.80700205     0.02100
C2098       C  0.83470785  0.88645118  0.83684891    -0.18400
H2099       H  0.83817254  0.86333097  0.84004486     0.04200
H2100       H  0.82297690  0.96829972  0.82281208     0.04200
C2101       C  0.51771446  0.77433418  0.47341074     0.02200
C2102       C  0.51703154  0.74093446  0.47289186     0.02100
C2103       C  0.99517008  0.71475937  0.49969132    -0.18400
C2104       C  0.97626699  0.72100128  0.52827440     0.02200
C2105       C  0.97905922  0.75532128  0.52991895     0.02100
C2106       C  0.99908107  0.78063040  0.50206529    -0.18400
H2107       H  0.00018315  0.80633743  0.50263638     0.04200
H2108       H  0.99326272  0.68876410  0.49871977     0.04200
C2109       C  0.76088022  0.77733023  0.47557453     0.02200
C2110       C  0.73143310  0.74171338  0.46856407     0.02100
C2111       C  0.72741645  0.71374958  0.49250049    -0.18400
C2112       C  0.74870822  0.71958039  0.52427071     0.02200
C2113       C  0.77841532  0.75440451  0.53008481     0.02100
C2114       C  0.78260463  0.78243489  0.50693853    -0.18400
H2115       H  0.80368244  0.80933066  0.51409624     0.04200
H2116       H  0.70616578  0.68643598  0.48715912     0.04200
C2117       C  0.75558593  0.97861755  0.47404872     0.02200
C2118       C  0.72192863  0.97783927  0.47467179     0.02100
C2119       C  0.71633064  0.99761415  0.50242142    -0.18400
C2120       C  0.74214459  0.51745805  0.52982268     0.02200
C2121       C  0.77464873  0.51622810  0.53064598     0.02100
C2122       C  0.78051606  0.99697364  0.50263634    -0.18400
H2123       H  0.80553009  0.99642771  0.50302549     0.04200
H2124       H  0.69108506  0.99770609  0.50255935     0.04200
O2125       O  0.54120421  0.56174723  0.01504386    -0.88500
C2126       C  0.96879822  0.52947894  0.93064444     0.87600
Mg2127     Mg  0.58454370  0.55087146  0.01404655     1.58100
O2128       O  0.93838076  0.98288492  0.01544300    -0.88200
O2129       O  0.99707731  0.55603474  0.05021934    -0.75500
C2130       C  0.00802694  0.87959254  0.98962119     0.92600
O2131       O  0.55578376  0.55359547  0.92810900    -0.75300
O2132       O  0.53777826  0.90812072  0.98425110    -0.82800
Mg2133     Mg  0.53625381  0.58483346  0.96417235     1.58000
C2134       C  0.87773123  0.87228406  0.00999005     0.92500
O2135       O  0.51976560  0.62098221  0.99208676    -0.81100
H2136       H  0.92414399  0.98133922  0.06864761    -0.06500
C2137       C  0.96805848  0.93414241  0.93801586     0.87500
O2138       O  0.55473806  0.50508293  0.05643928    -0.75600
O2139       O  0.98194813  0.54175601  0.96130635    -0.88400
O2140       O  0.87743141  0.90073024  0.00193347    -0.81200
C2141       C  0.87100785  0.99235706  0.97593178     0.92700
C2142       C  0.99057087  0.62054954  0.99894937     0.92500
Mg2143     Mg  0.96259192  0.91669668  0.02018326     1.58000
O2144       O  0.97834198  0.87908589  0.99309752    -0.81100
O2145       O  0.94275706  0.94763745  0.05559712    -0.75400
O2146       O  0.90094393  0.52103110  0.97396309    -0.81200
O2147       O  0.59269363  0.63049705  0.97233327    -0.82900
O2148       O  0.59854249  0.98027808  0.00917407    -0.81200
C2149       C  0.93428961  0.97101432  0.04730452     0.86900
O2150       O  0.51684847  0.96000055  0.02241158    -0.88400
O2151       O  0.95645601  0.93804841  0.96800154    -0.88500
O2152       O  0.50087502  0.94267562  0.93414495    -0.75500
Mg2153     Mg  0.94970777  0.53642895  0.00964685     1.58000
O2154       O  0.86847245  0.96187677  0.97350886    -0.82900
H2155       H  0.54813552  0.57475918  0.06887473    -0.06600
O2156       O  0.55946440  0.51702085  0.96721018    -0.88200
H2157       H  0.57233060  0.51852401  0.91351607    -0.06500
H2158       H  0.52024610  0.95501726  0.07725072    -0.06600
C2159       C  0.56307454  0.52911827  0.93545260     0.86900
C2160       C  0.52991366  0.56497665  0.04553891     0.87500
C2161       C  0.53005989  0.97225796  0.05308784     0.87500
H2162       H  0.95011747  0.92388746  0.91448538    -0.06600
O2163       O  0.94453470  0.99694978  0.92701498    -0.75600
Mg2164     Mg  0.54864543  0.96362851  0.97463357     1.58000
H2165       H  0.97857862  0.54671893  0.90647696    -0.06600
C2166       C  0.62030393  0.62759292  0.97727375     0.92500
O2167       O  0.63012547  0.54002054  0.01099502    -0.82900
C2168       C  0.62816491  0.00962242  0.01113664     0.92600
O2169       O  0.96066111  0.59207178  0.00358985    -0.82900
Mg2170     Mg  0.91364542  0.94998165  0.96808341     1.58200
O2171       O  0.61872331  0.59753133  0.97606878    -0.81200
O2172       O  0.90632057  0.87140394  0.01597124    -0.82900
O2173       O  0.88069866  0.72390859  0.36177893    -0.88500
C2174       C  0.80979784  0.70289430  0.27724363     0.87600
Mg2175     Mg  0.91808090  0.70466340  0.36155209     1.58100
O2176       O  0.77238378  0.65319928  0.35923428    -0.88200
O2177       O  0.83775983  0.72109296  0.39700099    -0.75500
C2178       C  0.82051752  0.53315369  0.31885528     0.92600
O2179       O  0.89160605  0.71475518  0.27462168    -0.75300
O2180       O  0.85238825  0.55942091  0.31465480    -0.82800
Mg2181     Mg  0.87863808  0.75029074  0.31157334     1.58000
C2182       C  0.70048576  0.54492791  0.35166446     0.92500
O2183       O  0.86920971  0.79250344  0.34085243    -0.81100
H2184       H  0.76162668  0.65158323  0.41346178    -0.06500
C2185       C  0.79546083  0.60196630  0.27818390     0.87500
O2186       O  0.88117326  0.65692171  0.39898402    -0.75600
O2187       O  0.82221647  0.71301083  0.30863249    -0.88400
O2188       O  0.70439545  0.57449185  0.34010032    -0.81200
C2189       C  0.71251304  0.67455167  0.31528353     0.92700
C2190       C  0.84191315  0.79511837  0.35011360     0.92500
Mg2191     Mg  0.78629071  0.57859084  0.35920334     1.58000
O2192       O  0.79404227  0.53684804  0.32844990    -0.81100
O2193       O  0.77437835  0.61435369  0.39662175    -0.75400
O2194       O  0.74232521  0.70128266  0.32514732    -0.81200
O2195       O  0.93789524  0.78915892  0.31470142    -0.82900
O2196       O  0.92334063  0.62679115  0.34509063    -0.81200
C2197       C  0.76866255  0.64005792  0.39051306     0.86900
O2198       O  0.84294344  0.61537315  0.36165019    -0.88400
O2199       O  0.78434135  0.60478216  0.30896198    -0.88500
O2200       O  0.82732654  0.60775406  0.27361192    -0.75500
Mg2201     Mg  0.79129708  0.70928483  0.35749819     1.58000
O2202       O  0.70807999  0.64350979  0.31020318    -0.82900
H2203       H  0.88710493  0.73344888  0.41630982    -0.06600
O2204       O  0.89343739  0.67538580  0.31138045    -0.88200
H2205       H  0.90466981  0.67788508  0.25719421    -0.06500
H2206       H  0.84342395  0.60697480  0.41614300    -0.06600
C2207       C  0.89732223  0.68896719  0.28031165     0.86900
C2208       C  0.86962256  0.72687116  0.39250626     0.87500
C2209       C  0.85547202  0.62528971  0.39302524     0.87500
H2210       H  0.77802483  0.59559260  0.25436836    -0.06600
O2211       O  0.78403312  0.67125940  0.27142221    -0.75600
Mg2212     Mg  0.87376045  0.61889946  0.31286804     1.58000
H2213       H  0.82195174  0.72104599  0.25402104    -0.06600
C2214       C  0.96451394  0.78462084  0.32045942     0.92500
O2215       O  0.95718038  0.68446839  0.36103148    -0.82900
C2216       C  0.95294478  0.65343907  0.35589640     0.92600
O2217       O  0.81082614  0.76805213  0.35529448    -0.82900
Mg2218     Mg  0.74719355  0.62386380  0.30926899     1.58200
O2219       O  0.96106549  0.75495951  0.33128178    -0.81200
O2220       O  0.72681403  0.53991960  0.35728629    -0.82900
O2221       O  0.62585164  0.76965731  0.69113066    -0.88500
C2222       C  0.70136279  0.80637458  0.60790089     0.87600
Mg2223     Mg  0.58064527  0.77797711  0.69073713     1.58100
O2224       O  0.72871910  0.85437041  0.69190797    -0.88200
O2225       O  0.67101986  0.77901127  0.72646496    -0.75500
C2226       C  0.64910305  0.94929194  0.65397492     0.92600
O2227       O  0.61319713  0.77680596  0.60367950    -0.75300
O2228       O  0.62055130  0.91963875  0.64790590    -0.82800
Mg2229     Mg  0.63468577  0.74830079  0.64055936     1.58000
C2230       C  0.78297225  0.96595370  0.68676110     0.92500
O2231       O  0.65321845  0.71381011  0.67012755    -0.81100
H2232       H  0.73903007  0.85664855  0.74621673    -0.06500
C2233       C  0.69508743  0.89723307  0.61162561     0.87500
O2234       O  0.60897537  0.82611829  0.72993360    -0.75600
O2235       O  0.68840252  0.79360386  0.63863723    -0.88400
O2236       O  0.78563034  0.93917838  0.67639606    -0.81200
C2237       C  0.80069592  0.85057909  0.64865069     0.92700
C2238       C  0.68302491  0.71587512  0.67812861     0.92500
Mg2239     Mg  0.69685310  0.91653893  0.69326932     1.58000
O2240       O  0.67844960  0.95143994  0.66421590    -0.81100
O2241       O  0.71761980  0.88712526  0.72994004    -0.75400
O2242       O  0.77272408  0.82040872  0.65520150    -0.81200
O2243       O  0.57841471  0.70041990  0.64369335    -0.82900
O2244       O  0.55925187  0.84475159  0.67566845    -0.81200
C2245       C  0.72928724  0.86578606  0.72346393     0.86900
O2246       O  0.64336549  0.87160508  0.69406590    -0.88400
O2247       O  0.70676527  0.89601600  0.64252580    -0.88500
O2248       O  0.66171284  0.88535693  0.60633159    -0.75500
Mg2249     Mg  0.72031829  0.80122138  0.68752785     1.58000
O2250       O  0.79991044  0.87952781  0.64587297    -0.82900
H2251       H  0.61939934  0.75719295  0.74515401    -0.06600
O2252       O  0.60322791  0.81043779  0.64154355    -0.88200
H2253       H  0.59136987  0.80693848  0.58754209    -0.06500
H2254       H  0.63901196  0.87726487  0.74859278    -0.06600
C2255       C  0.60173106  0.79829343  0.61016257     0.86900
C2256       C  0.63768304  0.76779256  0.72172063     0.87500
C2257       C  0.63063197  0.85938421  0.72500157     0.87500
H2258       H  0.71356826  0.90762599  0.58832955    -0.06600
O2259       O  0.72367375  0.83966011  0.60373195    -0.75600
Mg2260     Mg  0.61203414  0.86368779  0.64451833     1.58000
H2261       H  0.69296994  0.78897528  0.58392142    -0.06600
C2262       C  0.54854784  0.69915298  0.64926317     0.92500
O2263       O  0.53278038  0.78649961  0.68982703    -0.82900
C2264       C  0.53188008  0.81526947  0.68547911     0.92600
O2265       O  0.71204562  0.74548844  0.68259043    -0.82900
Mg2266     Mg  0.75190880  0.88771000  0.64358451     1.58200
O2267       O  0.54626907  0.72634156  0.65873441    -0.81200
O2268       O  0.75293804  0.96438525  0.69195513    -0.82900
C2269       C  0.97258712  0.81827872  0.68392404    -0.13400
C2270       C  0.49830091  0.81451836  0.68822311    -0.15000
C2271       C  0.86026302  0.84816284  0.65335694    -0.13400
C2272       C  0.83454661  0.85170341  0.64794073    -0.15000
C2273       C  0.86343671  0.84928756  0.73844142    -0.13500
C2274       C  0.89795220  0.87128739  0.72318980     0.08700
C2275       C  0.91878982  0.90669962  0.73644558    -0.13500
C2276       C  0.90499980  0.91961022  0.76431855    -0.13500
C2277       C  0.86966915  0.89774800  0.77828673     0.08700
C2278       C  0.84932116  0.86243257  0.76493294    -0.13500
H2279       H  0.84694881  0.82176268  0.72923009     0.12700
H2280       H  0.94556067  0.92425049  0.72529869     0.12700
H2281       H  0.92169789  0.94667735  0.77460052     0.12700
H2282       H  0.82206620  0.84480749  0.77492291     0.12700
C2283       C  0.87151368  0.79881858  0.57264267    -0.13500
C2284       C  0.86374509  0.79433905  0.61069574     0.08700
C2285       C  0.82747776  0.77293532  0.62227528    -0.13500
C2286       C  0.79937075  0.75865092  0.59640854    -0.13500
C2287       C  0.80713623  0.76380492  0.55831388     0.08700
C2288       C  0.84358525  0.78307532  0.54678995    -0.13500
H2289       H  0.89901121  0.81558708  0.56292465     0.12700
H2290       H  0.82081563  0.76930961  0.65158336     0.12700
H2291       H  0.77168093  0.74493153  0.60622120     0.12700
H2292       H  0.85031604  0.78766520  0.51752947     0.12700
C2293       C  0.97030350  0.81588038  0.60035949    -0.13500
C2294       C  0.93504184  0.79487272  0.61428349     0.08700
C2295       C  0.91351599  0.75984019  0.60026741    -0.13500
C2296       C  0.92713723  0.74658316  0.57257614    -0.13500
C2297       C  0.96310866  0.76743661  0.55988715     0.08700
C2298       C  0.98441851  0.80207187  0.57467015    -0.13500
H2299       H  0.48743130  0.84312725  0.61007623     0.12700
H2300       H  0.88623292  0.74292180  0.61046863     0.12700
H2301       H  0.90969798  0.72009075  0.56126515     0.12700
H2302       H  0.51228083  0.81889446  0.56603215     0.12700
C2303       C  0.81544808  0.99976865  0.68904233    -0.13400
C2304       C  0.84444689  0.52606593  0.68440416    -0.15000
C2305       C  0.98659436  0.63953205  0.65358331    -0.13400
C2306       C  0.51584568  0.66542417  0.64831605    -0.15000
C2307       C  0.88761629  0.49416930  0.71387729    -0.13500
C2308       C  0.90203427  0.52982599  0.72634922     0.08700
C2309       C  0.90335030  0.03609406  0.76449792    -0.13500
C2310       C  0.88894249  0.00724178  0.78951818    -0.13500
C2311       C  0.87158795  0.97135864  0.77687729     0.08700
C2312       C  0.87143772  0.96519884  0.73863426    -0.13500
H2313       H  0.88608791  0.48860650  0.68441198     0.12700
H2314       H  0.91383199  0.06311422  0.77490603     0.12700
H2315       H  0.88956385  0.01289150  0.81888665     0.12700
H2316       H  0.85745978  0.93813596  0.72773344     0.12700
C2317       C  0.84523944  0.52777751  0.60084332    -0.13500
C2318       C  0.85856664  0.56285082  0.61413941     0.08700
C2319       C  0.84420145  0.58336539  0.59956145    -0.13500
C2320       C  0.81731962  0.56891351  0.57199837    -0.13500
C2321       C  0.80303582  0.53309809  0.56004578     0.08700
C2322       C  0.81732224  0.51284033  0.57522384    -0.13500
H2323       H  0.85620098  0.01152007  0.61088596     0.12700
H2324       H  0.85388223  0.61048018  0.60925197     0.12700
H2325       H  0.80754583  0.58556732  0.56027267     0.12700
H2326       H  0.80709656  0.98525764  0.56691976     0.12700
C2327       C  0.94493698  0.67113633  0.62085323    -0.13500
C2328       C  0.92921934  0.63498680  0.60973542     0.08700
C2329       C  0.92546267  0.62733456  0.57164823    -0.13500
C2330       C  0.93799624  0.65522745  0.54546035    -0.13500
C2331       C  0.95667470  0.69163550  0.55654753     0.08700
C2332       C  0.95984892  0.69904147  0.59478042    -0.13500
H2333       H  0.94824962  0.67788579  0.65008447     0.12700
H2334       H  0.91393590  0.59991888  0.56208246     0.12700
H2335       H  0.43453425  0.64825404  0.51631182     0.12700
H2336       H  0.97518006  0.72633462  0.60481442     0.12700
C2337       C  0.00582804  0.89355753  0.71383318    -0.13500
C2338       C  0.96968758  0.87267238  0.72594626     0.08700
C2339       C  0.96248804  0.86824840  0.76411019    -0.13500
C2340       C  0.49087581  0.88333449  0.78953103    -0.13500
C2341       C  0.52717551  0.90184187  0.77741192     0.08700
C2342       C  0.53431640  0.90701824  0.73919156    -0.13500
H2343       H  0.01205801  0.89711964  0.68442673     0.12700
H2344       H  0.93508337  0.85186479  0.77423441     0.12700
H2345       H  0.48453549  0.87889544  0.81887461     0.12700
H2346       H  0.56179661  0.92011756  0.72881043     0.12700
C2347       C  0.98741485  0.58172428  0.73629138    -0.13500
C2348       C  0.97207531  0.60197322  0.72347813     0.08700
C2349       C  0.48419591  0.63613823  0.73869681    -0.13500
C2350       C  0.51193694  0.65056104  0.76460957    -0.13500
C2351       C  0.52779075  0.63085803  0.77742504     0.08700
C2352       C  0.01460515  0.59580495  0.76357723    -0.13500
H2353       H  0.97852412  0.55524254  0.72513186     0.12700
H2354       H  0.47259196  0.65217801  0.72976423     0.12700
H2355       H  0.52130515  0.67759207  0.77445652     0.12700
H2356       H  0.02556143  0.57952567  0.77348742     0.12700
C2357       C  0.68374021  0.68319686  0.67934287    -0.13400
C2358       C  0.68009260  0.65384472  0.67570473    -0.15000
C2359       C  0.65125524  0.51104240  0.65569528    -0.13400
C2360       C  0.64809618  0.98184523  0.65218966    -0.15000
C2361       C  0.57857430  0.98690854  0.76390703    -0.13500
C2362       C  0.60062542  0.97449379  0.77915831     0.08700
C2363       C  0.63665629  0.99043153  0.76689011    -0.13500
C2364       C  0.65030228  0.51752677  0.74013797    -0.13500
C2365       C  0.62805784  0.52870264  0.72343128     0.08700
C2366       C  0.59200163  0.51331978  0.73569022    -0.13500
H2367       H  0.55096138  0.97586846  0.77334045     0.12700
H2368       H  0.65448425  0.98165142  0.77780358     0.12700
H2369       H  0.67827590  0.52916675  0.73159341     0.12700
H2370       H  0.57428883  0.52156408  0.72338622     0.12700
C2371       C  0.60683931  0.61428967  0.71103912    -0.13500
C2372       C  0.62763691  0.59914099  0.72295571     0.08700
C2373       C  0.63260583  0.59726053  0.76111631    -0.13500
C2374       C  0.61820878  0.61129801  0.78659647    -0.13500
C2375       C  0.59992090  0.62907855  0.77457388     0.08700
C2376       C  0.59419469  0.63016101  0.73639638    -0.13500
H2377       H  0.60263113  0.61611871  0.68168385     0.12700
H2378       H  0.64889368  0.58634170  0.77119984     0.12700
H2379       H  0.62303782  0.60994993  0.81587846     0.12700
H2380       H  0.58122467  0.64442744  0.72598762     0.12700
C2381       C  0.73691061  0.53485803  0.59558542    -0.13500
C2382       C  0.73258146  0.53735258  0.55730325     0.08700
C2383       C  0.71517216  0.55595499  0.54523484    -0.13500
C2384       C  0.70002718  0.56916732  0.57071716    -0.13500
C2385       C  0.70389205  0.56608543  0.60891174     0.08700
C2386       C  0.72414460  0.55045936  0.62094520    -0.13500
H2387       H  0.74890513  0.51973356  0.60612747     0.12700
H2388       H  0.71164212  0.05870188  0.51594249     0.12700
H2389       H  0.68421424  0.58057548  0.56053891     0.12700
H2390       H  0.72764264  0.54787691  0.65032621     0.12700
C2391       C  0.68341729  0.64729117  0.59012229    -0.13500
C2392       C  0.70505857  0.63664785  0.60898757     0.08700
C2393       C  0.74170639  0.65225628  0.59876531    -0.13500
C2394       C  0.75633528  0.67854969  0.57051489    -0.13500
C2395       C  0.73472770  0.69025169  0.55285592     0.08700
C2396       C  0.69804238  0.67387228  0.56292814    -0.13500
H2397       H  0.65504666  0.63542133  0.59712326     0.12700
H2398       H  0.75891506  0.64428857  0.61273864     0.12700
H2399       H  0.78448464  0.69002417  0.56288103     0.12700
H2400       H  0.68055248  0.68215202  0.55010019     0.12700
C2401       C  0.99164893  0.65372535  0.99949571    -0.13400
C2402       C  0.99555035  0.68312945  0.99914830    -0.15000
C2403       C  0.00717446  0.81909826  0.99974274    -0.13400
C2404       C  0.00796814  0.84691084  0.99433808    -0.15000
C2405       C  0.57469593  0.82208261  0.93089976    -0.13500
C2406       C  0.53765660  0.80199221  0.93981097     0.08700
C2407       C  0.51362810  0.80873476  0.91993046    -0.13500
C2408       C  0.52626993  0.83749615  0.89537041    -0.13500
C2409       C  0.56333625  0.85886927  0.88694948     0.08700
C2410       C  0.58727835  0.84954969  0.90377593    -0.13500
H2411       H  0.59381709  0.81706569  0.94539823     0.12700
H2412       H  0.48491392  0.79334656  0.92578967     0.12700
H2413       H  0.50664220  0.84347953  0.88367736     0.12700
H2414       H  0.61573940  0.86405101  0.89684396     0.12700
C2415       C  0.53555686  0.73572748  0.90640963    -0.13500
C2416       C  0.54161071  0.73388582  0.94441234     0.08700
C2417       C  0.56335926  0.71922307  0.95470649    -0.13500
C2418       C  0.57614664  0.70435481  0.92809861    -0.13500
C2419       C  0.57016006  0.70643173  0.89008824     0.08700
C2420       C  0.55057394  0.72335422  0.87974741    -0.13500
H2421       H  0.01812910  0.74556685  0.89711942     0.12700
H2422       H  0.56883588  0.71750743  0.98371497     0.12700
H2423       H  0.59003603  0.69061048  0.93735842     0.12700
H2424       H  0.54531224  0.72547336  0.85075615     0.12700
C2425       C  0.68200717  0.68411286  0.99463260    -0.13400
C2426       C  0.65366119  0.65844768  0.98648336    -0.15000
C2427       C  0.84450997  0.83972127  0.00923496    -0.13400
C2428       C  0.81612733  0.81286153  0.00531472    -0.15000
C2429       C  0.76836322  0.79903094  0.90729295    -0.13500
C2430       C  0.76875924  0.80621171  0.94534252     0.08700
C2431       C  0.78111686  0.84212542  0.95604191    -0.13500
C2432       C  0.79502045  0.87013719  0.92968577    -0.13500
C2433       C  0.79413126  0.86265376  0.89157434     0.08700
C2434       C  0.77935115  0.82641768  0.88093762    -0.13500
H2435       H  0.76024583  0.77222490  0.89771822     0.12700
H2436       H  0.78142723  0.84876103  0.98506655     0.12700
H2437       H  0.80709822  0.89760326  0.93922429     0.12700
H2438       H  0.77795395  0.81933788  0.85190356     0.12700
C2439       C  0.69394689  0.70509897  0.91601599    -0.13500
C2440       C  0.70104756  0.73485774  0.93777064     0.08700
C2441       C  0.68207551  0.75298721  0.93022810    -0.13500
C2442       C  0.65512236  0.74007994  0.90265283    -0.13500
C2443       C  0.64493024  0.70742485  0.88418761     0.08700
C2444       C  0.66534914  0.69062077  0.89124133    -0.13500
H2445       H  0.70865689  0.69105836  0.92068076     0.12700
H2446       H  0.68759126  0.77655033  0.94608592     0.12700
H2447       H  0.64164447  0.75504385  0.89670470     0.12700
H2448       H  0.65869560  0.66532270  0.87840008     0.12700
C2449       C  0.81341828  0.99611515  0.99256115    -0.13400
C2450       C  0.83964492  0.99448000  0.98401141    -0.15000
C2451       C  0.68639594  0.00489174  0.00619914    -0.13400
C2452       C  0.66046830  0.00819574  0.01018847    -0.15000
C2453       C  0.62671170  0.92768091  0.93056902    -0.13500
C2454       C  0.63468628  0.93489114  0.89258351     0.08700
C2455       C  0.67119315  0.95587565  0.88179161    -0.13500
C2456       C  0.69868206  0.97068657  0.90807469    -0.13500
C2457       C  0.69096716  0.96295401  0.94593224     0.08700
C2458       C  0.65463485  0.94037685  0.95674799    -0.13500
H2459       H  0.59897355  0.91266654  0.94009846     0.12700
H2460       H  0.67847262  0.96207392  0.85279843     0.12700
H2461       H  0.72605008  0.48884560  0.89864482     0.12700
H2462       H  0.64772596  0.93370437  0.98572913     0.12700
C2463       C  0.75780320  0.91216248  0.90414450    -0.13500
C2464       C  0.79051719  0.93525868  0.88539734     0.08700
C2465       C  0.80610878  0.97252600  0.89151409    -0.13500
C2466       C  0.79036868  0.98614359  0.91531585    -0.13500
C2467       C  0.76078398  0.96314752  0.93752695     0.08700
C2468       C  0.74375876  0.92589871  0.93102293    -0.13500
H2469       H  0.74371204  0.88355825  0.89899863     0.12700
H2470       H  0.83152831  0.99173188  0.87876335     0.12700
H2471       H  0.80372502  0.51487928  0.91951971     0.12700
H2472       H  0.72040294  0.90753162  0.94736054     0.12700
C2473       C  0.95647329  0.78180033  0.12293724    -0.13500
C2474       C  0.93487985  0.79630182  0.11144726     0.08700
C2475       C  0.92834744  0.79639357  0.07329394    -0.13500
C2476       C  0.94259350  0.78209482  0.04773572    -0.13500
C2477       C  0.96655168  0.77039938  0.05910596     0.08700
C2478       C  0.97317804  0.77043733  0.09716501    -0.13500
H2479       H  0.96178791  0.78061645  0.15209879     0.12700
H2480       H  0.91300001  0.80825948  0.06300072     0.12700
H2481       H  0.93627970  0.78182237  0.01863253     0.12700
H2482       H  0.49153883  0.76191424  0.10702849     0.12700
C2483       C  0.83795189  0.81095243  0.10535011    -0.13500
C2484       C  0.85861527  0.79452206  0.11315548     0.08700
C2485       C  0.84737371  0.76073639  0.09660048    -0.13500
C2486       C  0.81848688  0.74585333  0.07085465    -0.13500
C2487       C  0.79858978  0.76313924  0.06337479     0.08700
C2488       C  0.80733346  0.79443132  0.08323744    -0.13500
H2489       H  0.84551842  0.83725020  0.11616914     0.12700
H2490       H  0.86124342  0.74620827  0.10285239     0.12700
H2491       H  0.81221519  0.72141244  0.05630632     0.12700
H2492       H  0.79239777  0.80824361  0.07855299     0.12700
C2493       C  0.81537776  0.97037354  0.31994710    -0.13400
C2494       C  0.81486176  0.49775426  0.31632731    -0.15000
C2495       C  0.84526093  0.82981765  0.35135063    -0.13400
C2496       C  0.84322595  0.85651290  0.34750750    -0.15000
C2497       C  0.75668888  0.91473669  0.40067205    -0.13500
C2498       C  0.79315536  0.93335446  0.38953483     0.08700
C2499       C  0.81628508  0.96683810  0.40553281    -0.13500
C2500       C  0.80335163  0.98165247  0.43141519    -0.13500
C2501       C  0.76741110  0.96234637  0.44434273     0.08700
C2502       C  0.74445448  0.92809850  0.42933512    -0.13500
H2503       H  0.73737463  0.89044604  0.38687311     0.12700
H2504       H  0.84438384  0.48213979  0.39706708     0.12700
H2505       H  0.82180599  0.50839562  0.44156595     0.12700
H2506       H  0.71682671  0.91209734  0.43891000     0.12700
C2507       C  0.82313484  0.86408654  0.42326469    -0.13500
C2508       C  0.79944062  0.86766067  0.39939735     0.08700
C2509       C  0.76215346  0.84368304  0.40370939    -0.13500
C2510       C  0.74911009  0.81728783  0.43163056    -0.13500
C2511       C  0.77303674  0.80980233  0.45093191     0.08700
C2512       C  0.81044215  0.83439815  0.44668409    -0.13500
H2513       H  0.85202029  0.88203703  0.42067177     0.12700
H2514       H  0.74310852  0.84384103  0.38434993     0.12700
H2515       H  0.72029143  0.80123128  0.43607300     0.12700
H2516       H  0.83048832  0.83027455  0.46040220     0.12700
C2517       C  0.90372831  0.91704876  0.26568557    -0.13500
C2518       C  0.86819300  0.89593904  0.27926160     0.08700
C2519       C  0.84717765  0.86075764  0.26602591    -0.13500
C2520       C  0.86170512  0.84597413  0.24223663    -0.13500
C2521       C  0.89669111  0.86688389  0.22747035     0.08700
C2522       C  0.91750843  0.90293833  0.23910446    -0.13500
H2523       H  0.92065148  0.94426988  0.27546676     0.12700
H2524       H  0.81954002  0.84397781  0.27542314     0.12700
H2525       H  0.84498602  0.81796112  0.23479668     0.12700
H2526       H  0.94429542  0.92006505  0.22779334     0.12700
C2527       C  0.63755228  0.98673174  0.35157549    -0.13400
C2528       C  0.66489172  0.51502300  0.35498175    -0.15000
C2529       C  0.99979447  0.81522081  0.31795784    -0.13400
C2530       C  0.52647782  0.84409599  0.32140526    -0.15000
C2531       C  0.52865147  0.84551281  0.40484062    -0.13500
C2532       C  0.56378279  0.85914982  0.39090485     0.08700
C2533       C  0.58492744  0.84517618  0.40483588    -0.13500
C2534       C  0.57078268  0.81799239  0.43220378    -0.13500
C2535       C  0.53464797  0.80299651  0.44429174     0.08700
C2536       C  0.51397845  0.81723325  0.43000107    -0.13500
H2537       H  0.51196136  0.85619387  0.39525949     0.12700
H2538       H  0.61220522  0.85530687  0.39472128     0.12700
H2539       H  0.58776602  0.80835696  0.44345486     0.12700
H2540       H  0.48615186  0.80655809  0.43860449     0.12700
C2541       C  0.65578273  0.93991600  0.45869705    -0.13500
C2542       C  0.69223967  0.95866315  0.44687013     0.08700
C2543       C  0.69936168  0.96180873  0.40855393    -0.13500
C2544       C  0.67105474  0.94639150  0.38302294    -0.13500
C2545       C  0.63477774  0.93029736  0.39482785     0.08700
C2546       C  0.62744235  0.92678845  0.43303968    -0.13500
H2547       H  0.64916245  0.93678324  0.48800258     0.12700
H2548       H  0.72677315  0.97709385  0.39816081     0.12700
H2549       H  0.67752159  0.94954081  0.35366480     0.12700
H2550       H  0.59992301  0.91499120  0.44306642     0.12700
C2551       C  0.99284903  0.88388005  0.28818956    -0.13500
C2552       C  0.52936834  0.90051832  0.27716751     0.08700
C2553       C  0.53739745  0.90526080  0.23906757    -0.13500
C2554       C  0.50955129  0.89279345  0.21279002    -0.13500
C2555       C  0.97284404  0.87345623  0.22375027     0.08700
C2556       C  0.96505669  0.86933991  0.26199617    -0.13500
H2557       H  0.98576580  0.87986616  0.31739519     0.12700
H2558       H  0.56512191  0.91763672  0.22954571     0.12700
H2559       H  0.51682625  0.89700078  0.18366273     0.12700
H2560       H  0.93753187  0.85361714  0.27191410     0.12700
C2561       C  0.97138440  0.65283875  0.10013923    -0.13500
C2562       C  0.93649590  0.64042817  0.11451831     0.08700
C2563       C  0.92064648  0.66165613  0.10707921    -0.13500
C2564       C  0.93527926  0.68893597  0.07975884    -0.13500
C2565       C  0.96972498  0.70035806  0.06431807     0.08700
C2566       C  0.98854382  0.68367506  0.07794299    -0.13500
H2567       H  0.98617046  0.63941519  0.10744307     0.12700
H2568       H  0.89748175  0.65793519  0.12279583     0.12700
H2569       H  0.91987311  0.70137507  0.07147104     0.12700
H2570       H  0.51613684  0.69310887  0.06928077     0.12700
C2571       C  0.84994530  0.58250555  0.09263526    -0.13500
C2572       C  0.86346515  0.56234963  0.10965458     0.08700
C2573       C  0.84765161  0.52586106  0.09906480    -0.13500
C2574       C  0.81823496  0.51005496  0.07476999    -0.13500
C2575       C  0.80557721  0.53082616  0.05745256     0.08700
C2576       C  0.82329416  0.56761821  0.06529471    -0.13500
H2577       H  0.85809897  0.60911166  0.10101313     0.12700
H2578       H  0.85723161  0.50894738  0.11056205     0.12700
H2579       H  0.80584220  0.98170959  0.06873904     0.12700
H2580       H  0.81684657  0.58519178  0.05021963     0.12700
C2581       C  0.88981268  0.50358581  0.28910666    -0.13500
C2582       C  0.86938222  0.96778612  0.27633046     0.08700
C2583       C  0.86579797  0.96181066  0.23794422    -0.13500
C2584       C  0.88087426  0.99092613  0.21304562    -0.13500
C2585       C  0.89827427  0.52694585  0.22594707     0.08700
C2586       C  0.90265943  0.53265023  0.26442502    -0.13500
H2587       H  0.89305201  0.50904091  0.31861991     0.12700
H2588       H  0.85015654  0.93476693  0.22722405     0.12700
H2589       H  0.87739629  0.98525645  0.18360100     0.12700
H2590       H  0.91466716  0.55947800  0.27574047     0.12700
C2591       C  0.71660227  0.66930952  0.12014470    -0.13500
C2592       C  0.69934579  0.63302475  0.10889696     0.08700
C2593       C  0.69809435  0.62593716  0.07067875    -0.13500
C2594       C  0.71432040  0.65426471  0.04485037    -0.13500
C2595       C  0.72901839  0.69044701  0.05600521     0.08700
C2596       C  0.72999590  0.69736037  0.09419670    -0.13500
H2597       H  0.71838888  0.67606176  0.14930429     0.12700
H2598       H  0.68440734  0.59853071  0.06070715     0.12700
H2599       H  0.71387056  0.64770687  0.01578575     0.12700
H2600       H  0.74008771  0.72442356  0.10419180     0.12700
C2601       C  0.68709804  0.52176520  0.10802415    -0.13500
C2602       C  0.70092801  0.55901671  0.11347653     0.08700
C2603       C  0.73333643  0.58264073  0.09477258    -0.13500
C2604       C  0.74843167  0.56956433  0.06856384    -0.13500
C2605       C  0.73524771  0.53240481  0.06476151     0.08700
C2606       C  0.70520669  0.50891123  0.08628063    -0.13500
H2607       H  0.66145685  0.50188957  0.11978911     0.12700
H2608       H  0.74637480  0.61129866  0.09898756     0.12700
H2609       H  0.76901570  0.58865400  0.05008949     0.12700
H2610       H  0.69313153  0.48013994  0.08276420     0.12700
C2611       C  0.59168199  0.51229231  0.24027156    -0.13500
C2612       C  0.62783794  0.52773848  0.22807777     0.08700
C2613       C  0.64950972  0.51531394  0.24385381    -0.13500
C2614       C  0.63526615  0.98712269  0.26909945    -0.13500
C2615       C  0.59976714  0.97236153  0.28238961     0.08700
C2616       C  0.57805354  0.98552663  0.26808470    -0.13500
H2617       H  0.57409427  0.52089618  0.22838255     0.12700
H2618       H  0.67762489  0.52689948  0.23592984     0.12700
H2619       H  0.65253980  0.97725929  0.27903968     0.12700
H2620       H  0.55059701  0.97478022  0.27791980     0.12700
C2621       C  0.65347437  0.67741286  0.31971929    -0.13400
C2622       C  0.68164516  0.67857811  0.31414062    -0.15000
C2623       C  0.98395845  0.64944200  0.35850051    -0.13400
C2624       C  0.51268220  0.65128541  0.35410813    -0.15000
C2625       C  0.55918472  0.72789504  0.38375499    -0.13500
C2626       C  0.57053806  0.70402700  0.39602819     0.08700
C2627       C  0.56540376  0.69427926  0.43363082    -0.13500
C2628       C  0.55188214  0.70953965  0.45850520    -0.13500
C2629       C  0.53805905  0.73129665  0.44608093     0.08700
C2630       C  0.54158893  0.73987215  0.40797497    -0.13500
H2631       H  0.56071991  0.73438108  0.35451176     0.12700
H2632       H  0.56896484  0.67286318  0.44390377     0.12700
H2633       H  0.55003453  0.70209943  0.48746209     0.12700
H2634       H  0.52949989  0.75446306  0.39633079     0.12700
C2635       C  0.63838642  0.69170562  0.42416675    -0.13500
C2636       C  0.64343007  0.70605268  0.38837516     0.08700
C2637       C  0.67892408  0.73260999  0.37816714    -0.13500
C2638       C  0.70808047  0.74297380  0.40280604    -0.13500
C2639       C  0.70186514  0.73135393  0.44011040     0.08700
C2640       C  0.66602494  0.70605283  0.45027561    -0.13500
H2641       H  0.61362883  0.66773162  0.43152228     0.12700
H2642       H  0.68451397  0.74357376  0.35031457     0.12700
H2643       H  0.73530427  0.76022209  0.39266307     0.12700
H2644       H  0.65942960  0.69546924  0.47824997     0.12700
C2645       C  0.01052720  0.59377131  0.26847012    -0.13500
C2646       C  0.52521077  0.62862018  0.28322043     0.08700
C2647       C  0.51149306  0.65031738  0.27081471    -0.13500
C2648       C  0.48292331  0.63730437  0.24594701    -0.13500
C2649       C  0.96845577  0.60286333  0.23040914     0.08700
C2650       C  0.98306901  0.58137666  0.24152734    -0.13500
H2651       H  0.02044290  0.57633722  0.27749817     0.12700
H2652       H  0.52252870  0.67746264  0.28113803     0.12700
H2653       H  0.47235705  0.65461590  0.23848150     0.12700
H2654       H  0.97325475  0.55506596  0.22948931     0.12700
C2655       C  0.59202996  0.63130453  0.23831086    -0.13500
C2656       C  0.59532285  0.62663960  0.27635955     0.08700
C2657       C  0.61029006  0.60544859  0.28701333    -0.13500
C2658       C  0.62530850  0.59279621  0.26073681    -0.13500
C2659       C  0.62236874  0.59739667  0.22250628     0.08700
C2660       C  0.60438762  0.61595810  0.21176631    -0.13500
H2661       H  0.58094657  0.64769672  0.22910190     0.12700
H2662       H  0.61331741  0.60145044  0.31617158     0.12700
H2663       H  0.64048086  0.58069100  0.27077253     0.12700
H2664       H  0.60106697  0.61987961  0.18270036     0.12700
loop_ 
_geom_bond_atom_site_label_1 
_geom_bond_atom_site_label_2 
_geom_bond_distance 
_geom_bond_site_symmetry_2 
_ccdc_geom_bond_type 
C1            C2   1.422       .  A
C1            C6   1.424       .  A
C1          C623   1.441       .  S
C2            C3   1.416       .  A
C2          C658   1.507       .  S
C3            C4   1.421       .  A
C3          C648   1.503       .  S
C4            C5   1.419       .  A
C4          C626   1.449       .  S
C5            C6   1.428       .  A
C5          C628   1.508       .  S
C6          C638   1.514       .  S
C7            C8   1.421       .  A
C7           C12   1.414       .  A
C7          C661   1.511       .  S
C8            C9   1.407       .  A
C8          C614   1.500       .  S
C9           C10   1.411       .  A
C9           H14   1.080       .  S
C10          C11   1.435       .  A
C10         C604   1.522       .  S
C11          C12   1.421       .  A
C11         C594   1.507       .  S
C12          H13   1.082       .  S
C15          C16   1.423       .  A
C15          C20   1.411       .  A
C15         C587   1.510       .  S
C16          C17   1.413       .  A
C16         C651   1.502       .  S
C17          C18   1.411       .  A
C17          H22   1.084       .  S
C18          C19   1.437       .  A
C18         C564   1.511       .  S
C19          C20   1.418       .  A
C19         C574   1.516       .  S
C20          H21   1.083       .  S
C23          C24   1.420       .  A
C23          C28   1.422       .  A
C23         C532   1.445       .  S
C24          C25   1.417       .  A
C24         C554   1.506       .  S
C25          C26   1.422       .  A
C25         C617   1.500       .  S
C26          C27   1.417       .  A
C26         C529   1.445       .  S
C27          C28   1.413       .  A
C27         C547   1.503       .  S
C28         C534   1.499       .  S
C29          C30   1.418       .  A
C29          C34   1.418       .  A
C29         C495   1.443       .  S
C30          C31   1.417       .  A
C30         C584   1.507       .  S
C31          C32   1.424       .  A
C31         C520   1.498       .  S
C32          C33   1.420       .  A
C32         C498   1.452       .  S
C33          C34   1.414       .  A
C33         C510   1.500       .  S
C34         C500   1.496       .  S
C35          C36   1.419       .  A
C35          C40   1.412       .  A
C35         C557   1.508       .  S
C36          C37   1.408       .  A
C36         C523   1.500       .  S
C37          C38   1.411       .  A
C37          H42   1.081       .  S
C38          C39   1.432       .  A
C38         C486   1.520       .  S
C39          C40   1.421       .  A
C39         C476   1.505       .  S
C40          H41   1.082       .  S
C43          C48   1.421       .  A
C43         C710   1.421   1_556  A
C43         C451   1.442       .  S
C44          C45   1.422       .  A
C44         C709   1.421   1_544  A
C44         C577   1.503       .  S
C45         C712   1.420       .  A
C45         C607   1.509       .  S
C46          C47   1.420   1_554  A
C46         C711   1.420       .  A
C46         C453   1.438       .  S
C47          C48   1.414       .  A
C47         C459   1.504       .  S
C48         C469   1.504       .  S
C49          C50   1.427       .  A
C49          C54   1.420   1_554  A
C49         C430   1.432       .  S
C50          C51   1.423       .  A
C50         C489   1.514       .  S
C51          C52   1.427   1_554  A
C51         C597   1.515       .  S
C52          C53   1.424       .  A
C52         C427   1.439       .  S
C53          C54   1.412       .  A
C53         C442   1.505       .  S
C54         C432   1.515       .  S
C55          C56   1.427       .  A
C55        C1392   1.421   1_554  A
C55         C404   1.429   1_554  S
C56          C57   1.426       .  A
C56         C567   1.528       .  S
C57          C58   1.427       .  A
C57         C479   1.509       .  S
C58        C1391   1.422   1_554  A
C58         C405   1.439   1_554  S
C59          C60   1.412       .  A
C59        C1390   1.422   1_556  A
C59         C408   1.506       .  S
C60        C1387   1.421   1_556  A
C60         C418   1.515       .  S
C61          C62   1.418       .  A
C61          C66   1.419       .  A
C61         C361   1.447       .  S
C62          C63   1.413       .  A
C62         C387   1.496       .  S
C63          C64   1.417       .  A
C63         C394   1.499       .  S
C64          C65   1.420       .  A
C64         C360   1.444       .  S
C65          C66   1.417       .  A
C65         C374   1.500       .  S
C66         C367   1.500       .  S
C67          C68   1.429       .  A
C67          C72   1.415       .  A
C67         C421   1.505       .  S
C68          C69   1.414       .  A
C68         C445   1.510       .  S
C69          C70   1.406       .  A
C69          H74   1.083       .  S
C70          C71   1.418       .  A
C70         C377   1.497       .  S
C71          C72   1.411       .  A
C71         C353   1.501       .  S
C72          H73   1.084       .  S
C75          C76   1.427       .  A
C75          C80   1.414       .  A
C75         C456   1.498       .  S
C76          C77   1.413       .  A
C76         C411   1.510       .  S
C77          C78   1.408       .  A
C77          H82   1.084       .  S
C78          C79   1.417       .  A
C78         C343   1.493       .  S
C79          C80   1.408       .  A
C79         C364   1.501       .  S
C80          H81   1.084       .  S
C83          C84   1.416       .  A
C83          C88   1.420       .  A
C83         C306   1.447       .  S
C84          C85   1.413       .  A
C84         C310   1.498       .  S
C85          C86   1.420       .  A
C85         C350   1.501       .  S
C86          C87   1.420       .  A
C86         C307   1.445       .  S
C87          C88   1.418       .  A
C87         C330   1.504       .  S
C88         C320   1.502       .  S
C89          C90   1.417       .  A
C89          C94   1.419       .  A
C89         C271   1.448       .  S
C90          C91   1.415       .  A
C90         C340   1.496       .  S
C91          C92   1.419       .  A
C91         C276   1.501       .  S
C92          C93   1.418       .  A
C92         C273   1.448       .  S
C93          C94   1.416       .  A
C93         C286   1.496       .  S
C94         C296   1.503       .  S
C95          C96   1.432       .  A
C95         C100   1.416       .  A
C95         C435   1.506       .  S
C96          C97   1.416       .  A
C96         C466   1.513       .  S
C97          C98   1.405       .  A
C97         H102   1.083       .  S
C98          C99   1.416       .  A
C98         C313   1.497       .  S
C99         C100   1.409       .  A
C99         C279   1.499       .  S
C100        H101   1.084       .  S
C103        C104   1.424       .  A
C103       C1440   1.410   1_455  A
C103        C537   1.498       .  S
C104       C1437   1.418   1_455  A
C104        C631   1.511       .  S
C105        C106   1.414       .  A
C105       C1436   1.418       .  A
C105        H110   1.081       .  S
C106        C107   1.423       .  A
C106        C333   1.505       .  S
C107        C108   1.408       .  A
C107        C299   1.502       .  S
C108       C1435   1.410       .  A
C108        H109   1.084       .  S
C111        C112   1.437       .  A
C111        C116   1.413       .  A
C111        C513   1.510       .  S
C112        C113   1.419       .  A
C112        C641   1.516       .  S
C113        C114   1.409       .  A
C113        H118   1.084       .  S
C114        C115   1.413       .  A
C114        C397   1.499       .  S
C115        C116   1.402       .  A
C115        C289   1.491       .  S
C116        H117   1.083       .  S
C119        C120   1.425       .  A
C119        C124   1.410       .  A
C119        C503   1.498       .  S
C120        C121   1.409       .  A
C120        C544   1.503       .  S
C121        C788   1.411       .  A
C121        H126   1.083       .  S
C122        C123   1.420       .  A
C122        C787   1.411   1_545  A
C122        C384   1.494       .  S
C123        C790   1.406   1_545  A
C123        C323   1.501       .  S
C124        C789   1.406       .  A
C124        H125   1.084       .  S
O127       Mg129   2.131       .  S
O127       Mg135   2.147   1_554  S
O127        C162   1.234       .  S
C128        H167   1.081       .  S
C128        O141   1.234       .  S
C128        O831   1.270   1_545  A
Mg129       O158   2.137   1_554  S
Mg129       O173   2.254   1_554  S
Mg129       O169   2.227       .  S
Mg129       O140   2.303       .  S
O130       Mg172   2.133   1_554  S
O130       Mg821   2.117       .  S
O130        C151   1.232       .  S
O131       C1494   1.268       .  A
O131       Mg155   2.296       .  S
C132        C406   1.416       .  S
C132        O146   1.266       .  A
C132       O1466   1.263       .  A
O133        C161   1.269       .  A
O133       Mg135   2.306       .  S
O134       C1464   1.263       .  A
O134       Mg166   2.221       .  S
Mg135      O1473   2.127   1_455  S
Mg135       O149   2.240       .  S
Mg135       O137   2.243       .  S
C136        C429   1.409       .  S
C136        O174   1.263       .  A
C136        O142   1.265       .  A
O137       C1476   1.264   1_455  A
H138        C151   1.081       .  S
C139        H164   1.081       .  S
C139        O153   1.234       .  S
C139       O1486   1.269       .  A
O140        C829   1.270   1_545  A
O141       Mg155   2.156   1_556  S
O141      Mg1467   2.127       .  S
O142       Mg172   2.251   1_554  S
C143        C452   1.420       .  S
C143        O156   1.264       .  A
C143        O814   1.264       .  A
C144        C403   1.406       .  S
C144        O171   1.262   1_556  A
C144       O1469   1.264       .  A
Mg145       O153   2.167   1_554  S
Mg145      O1484   2.129       .  S
Mg145       O146   2.263   1_554  S
Mg145       O147   2.292       .  S
Mg145       O174   2.217       .  S
O147        C151   1.266       .  A
O148        C809   1.263   1_545  A
O148       Mg155   2.255   1_556  S
O149        C168   1.263       .  A
O150        C170   1.265       .  A
O150       Mg166   2.261   1_554  S
O152       Mg166   2.146   1_554  S
O152      Mg1477   2.129   1_455  S
O152        C163   1.235       .  S
O153       Mg172   2.138       .  S
O154       C1471   1.269   1_455  A
O154       Mg166   2.303       .  S
Mg155       O796   2.117   1_545  S
Mg155       O171   2.209       .  S
O156       Mg172   2.244       .  S
H157        C162   1.081       .  S
O158       Mg832   2.118   1_545  S
O158        C161   1.234       .  S
H159        C161   1.081       .  S
H160        C163   1.081       .  S
C162       O1463   1.268   1_455  A
C163        O806   1.270       .  A
O165        C794   1.270       .  A
O165       Mg172   2.307       .  S
Mg166       O824   2.119       .  S
C168        C428   1.418       .  S
C168        O173   1.263       .  A
O169        C836   1.263       .  A
C170        C454   1.415       .  S
C170        O835   1.263       .  A
O175       Mg177   2.141       .  S
O175       Mg183   2.162       .  S
O175        C210   1.234       .  S
C176        H215   1.081       .  S
C176        O189   1.235       .  S
C176        O213   1.268       .  A
Mg177       O206   2.157       .  S
Mg177       O221   2.290       .  S
Mg177       O217   2.241       .  S
Mg177       O188   2.293       .  S
O178       Mg220   2.156       .  S
O178       Mg203   2.127       .  S
O178        C199   1.234       .  S
O179        C210   1.268       .  A
O179       Mg203   2.292       .  S
C180        C496   1.421   1_545  S
C180        O182   1.269       .  A
C180        O194   1.268       .  A
O181        C209   1.268       .  A
O181       Mg183   2.296       .  S
O182       Mg214   2.246       .  S
Mg183       O189   2.128       .  S
Mg183       O197   2.233       .  S
Mg183       O185   2.305       .  S
C184        C530   1.422       .  S
C184        O222   1.267       .  A
C184        O190   1.268       .  A
O185        C192   1.273       .  A
H186        C199   1.081       .  S
C187        H212   1.081       .  S
C187        O201   1.235       .  S
C187        O202   1.268       .  A
O188        C211   1.268       .  A
O189       Mg203   2.155       .  S
O190       Mg220   2.276       .  S
C191        C624   1.418       .  S
C191        O204   1.265       .  A
C191        O196   1.268       .  A
C192        C497   1.428       .  S
C192        O219   1.266       .  A
Mg193       O200   2.131       .  S
Mg193       O201   2.157       .  S
Mg193       O194   2.273       .  S
Mg193       O195   2.288       .  S
Mg193       O222   2.237       .  S
O195        C199   1.267       .  A
O196       Mg203   2.274       .  S
O197        C216   1.268       .  A
O198        C218   1.272       .  A
O198       Mg214   2.295       .  S
O200       Mg214   2.152       .  S
O200        C211   1.234       .  S
O201       Mg220   2.127       .  S
O202       Mg214   2.292       .  S
Mg203       O219   2.232       .  S
O204       Mg220   2.224       .  S
H205        C210   1.081       .  S
O206       Mg214   2.137       .  S
O206        C209   1.234       .  S
H207        C209   1.081       .  S
H208        C211   1.081       .  S
O213       Mg220   2.293       .  S
C216        C531   1.423       .  S
C216        O221   1.271       .  A
O217        C218   1.268       .  A
C218        C625   1.426       .  S
O223       Mg225   2.139       .  S
O223       Mg231   2.157       .  S
O223        C258   1.235       .  S
C224        H263   1.081       .  S
C224        O237   1.235       .  S
C224        O261   1.270       .  A
Mg225       O254   2.158       .  S
Mg225       O269   2.273       .  S
Mg225       O265   2.257       .  S
Mg225       O236   2.291       .  S
O226       Mg268   2.152       .  S
O226       Mg251   2.137       .  S
O226        C247   1.234       .  S
O227        C258   1.269       .  A
O227       Mg251   2.299       .  S
C228        C362   1.425       .  S
C228        O230   1.267       .  A
C228        O242   1.270       .  A
O229        C257   1.268       .  A
O229       Mg231   2.295       .  S
O230       Mg262   2.251       .  S
Mg231       O237   2.142       .  S
Mg231       O245   2.252       .  S
Mg231       O233   2.272       .  S
C232        C305   1.424       .  S
C232        O270   1.267       .  A
C232        O238   1.270       .  A
O233        C240   1.269       .  A
H234        C247   1.081       .  S
C235        H260   1.081       .  S
C235        O249   1.235       .  S
C235        O250   1.268       .  A
O236        C259   1.268       .  A
O237       Mg251   2.157       .  S
O238       Mg268   2.279       .  S
C239        C274   1.426       .  S
C239        O252   1.268       .  A
C239        O244   1.269       .  A
C240        C359   1.423       .  S
C240        O267   1.267       .  A
Mg241       O248   2.130       .  S
Mg241       O249   2.162       .  S
Mg241       O242   2.275       .  S
Mg241       O243   2.299       .  S
Mg241       O270   2.245       .  S
O243        C247   1.269       .  A
O244       Mg251   2.278       .  S
O245        C264   1.268       .  A
O246        C266   1.269       .  A
O246       Mg262   2.271       .  S
O248       Mg262   2.160       .  S
O248        C259   1.234       .  S
O249       Mg268   2.136       .  S
O250       Mg262   2.295       .  S
Mg251       O267   2.250       .  S
O252       Mg268   2.256       .  S
H253        C258   1.081       .  S
O254       Mg262   2.131       .  S
O254        C257   1.234       .  S
H255        C257   1.081       .  S
H256        C259   1.081       .  S
O261       Mg268   2.303       .  S
C264        C308   1.424       .  S
C264        O269   1.269       .  A
O265        C266   1.268       .  A
C266        C272   1.425   1_455  S
C271       C1604   1.202       .  T
C272       C1603   1.202       .  T
C273        C274   1.202       .  T
C275        C276   1.403       .  A
C275        C280   1.391       .  A
C275        H281   1.084       .  S
C276        C277   1.409       .  A
C277        C278   1.411       .  A
C277        H282   1.083       .  S
C278        C279   1.411       .  A
C278        H283   1.082       .  S
C279        C280   1.405       .  A
C280        H284   1.083       .  S
C285        C286   1.400       .  A
C285        C290   1.398       .  A
C285        H291   1.083       .  S
C286        C287   1.411       .  A
C287        C288   1.401       .  A
C287        H292   1.083       .  S
C288        C289   1.402       .  A
C288        H293   1.083       .  S
C289        C290   1.411       .  A
C290        H294   1.083       .  S
C295        C296   1.404       .  A
C295        C300   1.390       .  A
C295       H1633   1.084       .  S
C296        C297   1.409       .  A
C297        C298   1.411       .  A
C297        H302   1.082       .  S
C298        C299   1.411       .  A
C298        H303   1.082       .  S
C299        C300   1.406       .  A
C300       H1636   1.083       .  S
H301       C1627   1.084       .  S
H304       C1632   1.083   1_455  S
C305        C972   1.201       .  T
C306        C971   1.201   1_545  T
C307       C1640   1.201       .  T
C308       C1639   1.201   1_455  T
C309        C310   1.411   1_565  A
C309        C980   1.400       .  A
C309        H315   1.083       .  S
C310        C977   1.400       .  A
C311        C312   1.401       .  A
C311        C976   1.400       .  A
C311        H316   1.083       .  S
C312        C313   1.413       .  A
C312        H317   1.083       .  S
C313        C314   1.403       .  A
C314        C975   1.400       .  A
C314        H318   1.082       .  S
C319        C320   1.404       .  A
C319        C324   1.390       .  A
C319        H991   1.084       .  S
C320        C321   1.409       .  A
C321        C322   1.410       .  A
C321        H326   1.082       .  S
C322        C323   1.411       .  A
C322        H327   1.082       .  S
C323        C324   1.405       .  A
C324        H994   1.083   1_545  S
H325        C985   1.084       .  S
H328        C990   1.083       .  S
C329        C330   1.409       .  A
C329        C334   1.399       .  A
C329        H335   1.084       .  S
C330        C331   1.402       .  A
C331        C332   1.403       .  A
C331        H336   1.082       .  S
C332        C333   1.414       .  A
C332       H1669   1.083       .  S
C333        C334   1.406       .  A
C334        H338   1.081       .  S
H337       C1664   1.083       .  S
C339        C340   1.411       .  A
C339       C1676   1.400       .  A
C339        H345   1.083       .  S
C340        C341   1.400       .  A
C341       C1674   1.398       .  A
C341        H346   1.083       .  S
C342        C343   1.411   1_655  A
C342       C1673   1.398       .  A
C342        H347   1.083       .  S
C343        C344   1.403       .  A
C344       C1671   1.400       .  A
C344        H348   1.083       .  S
C349        C350   1.409       .  A
C349        C354   1.411       .  A
C349        H355   1.083       .  S
C350       C1683   1.403       .  A
C351        C352   1.392   1_655  A
C351       C1682   1.403       .  A
C351        H356   1.084       .  S
C352        C353   1.406       .  A
C352        H357   1.083       .  S
C353       C1686   1.411       .  A
C354       C1685   1.411       .  A
C354        H358   1.082       .  S
C359        C360   1.200       .  T
C361       C1028   1.202   1_545  T
C362       C1027   1.202       .  T
C363        C364   1.411       .  A
C363       C1034   1.412       .  A
C363        H369   1.082       .  S
C364        C365   1.406       .  A
C365       C1032   1.391       .  A
C365        H370   1.083       .  S
C366        C367   1.403       .  A
C366       C1031   1.391   1_545  A
C366        H371   1.084       .  S
C367        C368   1.409       .  A
C368       C1029   1.412   1_545  A
C368        H372   1.083       .  S
C373        C374   1.411       .  A
C373        C378   1.401       .  A
C373        H379   1.083       .  S
C374        C375   1.401       .  A
C375        C376   1.399       .  A
C375        H380   1.083       .  S
C376        C377   1.412       .  A
C376        H381   1.083       .  S
C377        C378   1.403       .  A
C378        H382   1.082       .  S
C383        C384   1.404       .  A
C383        C388   1.397       .  A
C383        H389   1.082       .  S
C384        C385   1.411       .  A
C385        C386   1.398       .  A
C385       H1056   1.083       .  S
C386        C387   1.401       .  A
C386        H391   1.082       .  S
C387        C388   1.408       .  A
C388        H392   1.083       .  S
H390       C1051   1.083       .  S
C393        C394   1.402       .  A
C393        C398   1.392       .  A
C393        H399   1.084       .  S
C394        C395   1.409       .  A
C395        C396   1.411       .  A
C395        H400   1.083       .  S
C396        C397   1.410       .  A
C396        H401   1.082       .  S
C397        C398   1.407       .  A
C398        H402   1.083       .  S
C403        C404   1.191       .  T
C405        C406   1.197       .  T
C407        C408   1.409       .  A
C407        C412   1.414       .  A
C407        H413   1.083       .  S
C408        C409   1.401       .  A
C409        C410   1.390       .  A
C409        H414   1.084   1_455  S
C410        C411   1.409       .  A
C410        H415   1.082       .  S
C411        C412   1.414       .  A
C412        H416   1.082       .  S
C417        C418   1.404       .  A
C417        C422   1.400       .  A
C417       H1755   1.081       .  S
C418        C419   1.414       .  A
C419        C420   1.406       .  A
C419        H424   1.083       .  S
C420        C421   1.406       .  A
C420        H425   1.082       .  S
C421        C422   1.411       .  A
C422        H426   1.083       .  S
H423       C1749   1.081       .  S
C427        C428   1.198       .  T
C429        C430   1.193       .  T
C431        C432   1.404       .  A
C431        C436   1.397       .  A
C431        H437   1.082       .  S
C432        C433   1.414       .  A
C433        C434   1.409       .  A
C433        H438   1.083       .  S
C434        C435   1.407       .  A
C434        H439   1.082       .  S
C435        C436   1.411       .  A
C436        H440   1.083       .  S
C441        C442   1.400       .  A
C441        C446   1.389       .  A
C441        H447   1.084       .  S
C442        C443   1.408       .  A
C443        C444   1.412       .  A
C443        H448   1.083       .  S
C444        C445   1.413       .  A
C444        H449   1.081       .  S
C445        C446   1.411       .  A
C446        H450   1.082       .  S
C451        C452   1.199       .  T
C453        C454   1.196       .  T
C455        C456   1.406       .  A
C455        C460   1.404       .  A
C455        H461   1.082       .  S
C456        C457   1.409       .  A
C457        C458   1.395       .  A
C457        H462   1.083       .  S
C458        C459   1.402       .  A
C458       H1129   1.082       .  S
C459        C460   1.411       .  A
C460        H464   1.083       .  S
H463       C1124   1.082       .  S
C465        C466   1.414       .  A
C465        C470   1.415       .  A
C465        H471   1.081       .  S
C466        C467   1.412       .  A
C467        C468   1.388       .  A
C467        H472   1.082       .  S
C468        C469   1.399       .  A
C468       H1139   1.084       .  S
C469        C470   1.409       .  A
C470        H474   1.083       .  S
H473       C1134   1.084   1_545  S
C475        C476   1.415       .  A
C475        C480   1.400       .  A
C475        H481   1.083       .  S
C476        C477   1.405       .  A
C477        C478   1.404       .  A
C477        H482   1.082       .  S
C478        C479   1.413       .  A
C478        H483   1.083       .  S
C479        C480   1.402       .  A
C480       H1816   1.083       .  S
H484       C1812   1.083       .  S
C485        C486   1.412       .  A
C485        C490   1.390       .  A
C485        H491   1.082       .  S
C486        C487   1.415       .  A
C487        C488   1.420       .  A
C487        H492   1.082       .  S
C488        C489   1.412       .  A
C488        H493   1.082       .  S
C489        C490   1.401       .  A
C490        H494   1.084       .  S
C495       C1162   1.199       .  T
C496       C1161   1.199       .  T
C497        C498   1.204       .  T
C499        C500   1.407       .  A
C499        C504   1.404       .  A
C499        H505   1.077       .  S
C500        C501   1.401       .  A
C501        C502   1.391       .  A
C501       H1172   1.084       .  S
C502        C503   1.409       .  A
C502       H1173   1.083       .  S
C503        C504   1.407       .  A
C504        H508   1.082       .  S
H506       C1167   1.084       .  S
H507       C1168   1.083   1_545  S
C509        C510   1.399       .  A
C509        C514   1.393       .  A
C509        H515   1.084       .  S
C510        C511   1.407       .  A
C511        C512   1.405       .  A
C511        H516   1.078       .  S
C512        C513   1.406       .  A
C512        H517   1.080       .  S
C513        C514   1.416       .  A
C514        H518   1.082       .  S
C519        C520   1.409       .  A
C519        C524   1.411       .  A
C519        H525   1.082       .  S
C520        C521   1.402       .  A
C521        C522   1.386       .  A
C521        H526   1.084       .  S
C522        C523   1.406       .  A
C522        H527   1.083       .  S
C523        C524   1.412       .  A
C524        H528   1.082       .  S
C529       C1196   1.199       .  T
C530       C1195   1.200   1_545  T
C531       C1864   1.200       .  T
C532       C1863   1.200   1_455  T
C533        C534   1.402       .  A
C533        C538   1.388       .  A
C533        H539   1.084       .  S
C534        C535   1.409       .  A
C535        C536   1.411       .  A
C535        H540   1.083       .  S
C536        C537   1.411       .  A
C536        H541   1.082       .  S
C537        C538   1.405       .  A
C538        H542   1.083   1_455  S
C543        C544   1.414       .  A
C543        C548   1.403       .  A
C543        H549   1.083       .  S
C544        C545   1.404       .  A
C545        C546   1.399       .  A
C545        H550   1.082       .  S
C546        C547   1.410       .  A
C546        H551   1.083       .  S
C547        C548   1.402       .  A
C548        H552   1.083       .  S
C553        C558   1.400       .  A
C553       C1886   1.409       .  A
C553        H559   1.083       .  S
C554        C555   1.404       .  A
C554       C1885   1.409   1_455  A
C555        C556   1.405       .  A
C555        H560   1.083       .  S
C556       C1889   1.414   1_455  A
C556        H561   1.083       .  S
C557        C558   1.407       .  A
C557       C1888   1.414       .  A
C558        H562   1.082       .  S
C563        C564   1.406       .  A
C563        C568   1.399       .  A
C563        H569   1.084       .  S
C564        C565   1.412       .  A
C565        C566   1.413       .  A
C565        H570   1.080       .  S
C566        C567   1.411       .  A
C566        H571   1.081       .  S
C567        C568   1.412       .  A
C568       H1904   1.083       .  S
H572       C1900   1.083   1_455  S
C573        C574   1.405       .  A
C573        C578   1.400       .  A
C573        H579   1.060       .  S
C574        C575   1.416       .  A
C575        C576   1.402       .  A
C575        H580   1.083       .  S
C576        C577   1.405       .  A
C576       H1247   1.083   1_545  S
C577        C578   1.400       .  A
C578        H582   1.075       .  S
H581       C1242   1.083       .  S
C583        C588   1.401       .  A
C583       C1250   1.411   1_545  A
C583        H589   1.084       .  S
C584        C585   1.402       .  A
C584       C1249   1.411       .  A
C585        C586   1.405       .  A
C585        H590   1.083       .  S
C586       C1253   1.416       .  A
C586        H591   1.083       .  S
C587        C588   1.405       .  A
C587       C1252   1.416   1_545  A
C588        H592   1.082       .  S
C593        C594   1.412       .  A
C593        C598   1.400       .  A
C593        H599   1.083       .  S
C594        C595   1.406       .  A
C595        C596   1.407       .  A
C595        H600   1.083       .  S
C596        C597   1.415       .  A
C596        H601   1.082       .  S
C597        C598   1.404       .  A
C598        H602   1.081       .  S
C603        C604   1.417       .  A
C603        C608   1.396       .  A
C603        H609   1.081       .  S
C604        C605   1.410       .  A
C605        C606   1.410       .  A
C605        H610   1.080       .  S
C606        C607   1.411       .  A
C606        H611   1.078       .  S
C607        C608   1.401       .  A
C608        H612   1.084   1_545  S
C613        C614   1.411       .  A
C613       C1284   1.411   1_545  A
C613        H619   1.082       .  S
C614        C615   1.405       .  A
C615       C1282   1.386   1_545  A
C615        H620   1.083       .  S
C616        C617   1.402       .  A
C616       C1281   1.386       .  A
C616        H621   1.084       .  S
C617        C618   1.409       .  A
C618       C1279   1.411       .  A
C618        H622   1.082       .  S
C623        C624   1.198       .  T
C625       C1958   1.202       .  T
C626       C1957   1.202   1_455  T
C627        C628   1.412       .  A
C627        C632   1.407       .  A
C627        H633   1.083       .  S
C628        C629   1.402       .  A
C629        C630   1.396       .  A
C629        H634   1.074       .  S
C630        C631   1.410       .  A
C630        H635   1.082       .  S
C631        C632   1.410       .  A
C632        H636   1.081       .  S
C637        C638   1.398       .  A
C637        C642   1.394       .  A
C637        H643   1.076       .  S
C638        C639   1.415       .  A
C639        C640   1.413       .  A
C639        H644   1.082       .  S
C640        C641   1.411       .  A
C640        H645   1.082       .  S
C641        C642   1.411       .  A
C642        H646   1.082       .  S
C647        C652   1.411       .  A
C647       C1980   1.409       .  A
C647        H653   1.082       .  S
C648        C649   1.404       .  A
C648       C1979   1.409       .  A
C649        C650   1.391   1_455  A
C649        H654   1.084       .  S
C650       C1983   1.406       .  A
C650        H655   1.083       .  S
C651        C652   1.412       .  A
C651       C1982   1.406       .  A
C652        H656   1.082       .  S
C657        C658   1.404       .  A
C657        C662   1.407       .  A
C657        H663   1.083       .  S
C658        C659   1.408       .  A
C659        C660   1.398       .  A
C659        H664   1.084       .  S
C660        C661   1.407       .  A
C660        H665   1.081       .  S
C661        C662   1.415       .  A
C662        H666   1.082       .  S
C667        C668   1.422       .  A
C667        C672   1.424       .  A
C667       C1289   1.441       .  S
C668        C669   1.416       .  A
C668       C1324   1.507       .  S
C669        C670   1.421       .  A
C669       C1314   1.503       .  S
C670        C671   1.419       .  A
C670       C1292   1.449       .  S
C671        C672   1.428       .  A
C671       C1294   1.508       .  S
C672       C1304   1.514       .  S
C673        C674   1.421       .  A
C673        C678   1.414       .  A
C673       C1327   1.511       .  S
C674        C675   1.407       .  A
C674       C1280   1.500       .  S
C675        C676   1.411       .  A
C675        H680   1.080       .  S
C676        C677   1.435       .  A
C676       C1270   1.522       .  S
C677        C678   1.421       .  A
C677       C1260   1.507       .  S
C678        H679   1.082       .  S
C681        C682   1.423       .  A
C681        C686   1.411       .  A
C681       C1253   1.510       .  S
C682        C683   1.413       .  A
C682       C1317   1.502       .  S
C683        C684   1.411       .  A
C683        H688   1.084       .  S
C684        C685   1.437       .  A
C684       C1230   1.511       .  S
C685        C686   1.418       .  A
C685       C1240   1.516       .  S
C686        H687   1.083       .  S
C689        C690   1.420       .  A
C689        C694   1.422       .  A
C689       C1198   1.445       .  S
C690        C691   1.417       .  A
C690       C1220   1.506       .  S
C691        C692   1.422       .  A
C691       C1283   1.500       .  S
C692        C693   1.417       .  A
C692       C1195   1.445       .  S
C693        C694   1.413       .  A
C693       C1213   1.503       .  S
C694       C1200   1.499       .  S
C695        C696   1.418       .  A
C695        C700   1.418       .  A
C695       C1161   1.443       .  S
C696        C697   1.417       .  A
C696       C1250   1.507       .  S
C697        C698   1.424       .  A
C697       C1186   1.498       .  S
C698        C699   1.420       .  A
C698       C1164   1.452       .  S
C699        C700   1.414       .  A
C699       C1176   1.500       .  S
C700       C1166   1.496       .  S
C701        C702   1.420       .  A
C701        C706   1.413       .  A
C701       C1223   1.508       .  S
C702        C703   1.408       .  A
C702       C1189   1.500       .  S
C703        C704   1.411       .  A
C703        H708   1.081       .  S
C704        C705   1.432       .  A
C704       C1152   1.520       .  S
C705        C706   1.421       .  A
C705       C1142   1.505       .  S
C706        H707   1.082       .  S
C709        C714   1.421       .  A
C709       C1117   1.442       .  S
C710        C711   1.422       .  A
C710       C1243   1.503       .  S
C711       C1273   1.509       .  S
C712        C713   1.421   1_544  A
C712       C1119   1.438       .  S
C713        C714   1.414       .  A
C713       C1125   1.504       .  S
C714       C1135   1.505       .  S
C715        C716   1.427       .  A
C715        C720   1.420   1_554  A
C715       C1096   1.432       .  S
C716        C717   1.423       .  A
C716       C1155   1.514       .  S
C717        C718   1.427   1_554  A
C717       C1263   1.515       .  S
C718        C719   1.424       .  A
C718       C1093   1.439       .  S
C719        C720   1.412       .  A
C719       C1108   1.504       .  S
C720       C1098   1.516       .  S
C721        C722   1.427       .  A
C721       C2058   1.421   1_554  A
C721       C1070   1.429   1_554  S
C722        C723   1.426       .  A
C722       C1233   1.529       .  S
C723        C724   1.427       .  A
C723       C1145   1.509       .  S
C724       C2057   1.422   1_554  A
C724       C1071   1.439   1_554  S
C725       C2056   1.422   1_556  A
C725        C726   1.412       .  A
C725       C1074   1.506       .  S
C726       C2053   1.421   1_556  A
C726       C1084   1.515       .  S
C727        C728   1.418       .  A
C727        C732   1.419       .  A
C727       C1027   1.447       .  S
C728        C729   1.413       .  A
C728       C1053   1.496       .  S
C729        C730   1.417       .  A
C729       C1060   1.499       .  S
C730        C731   1.420       .  A
C730       C1026   1.444       .  S
C731        C732   1.417       .  A
C731       C1040   1.500       .  S
C732       C1033   1.500       .  S
C733        C734   1.429       .  A
C733        C738   1.415       .  A
C733       C1087   1.504       .  S
C734        C735   1.414       .  A
C734       C1111   1.510       .  S
C735        C736   1.406       .  A
C735        H740   1.083       .  S
C736        C737   1.418       .  A
C736       C1043   1.497       .  S
C737        C738   1.411       .  A
C737       C1019   1.501       .  S
C738        H739   1.084       .  S
C741        C742   1.427       .  A
C741        C746   1.414       .  A
C741       C1122   1.498       .  S
C742        C743   1.413       .  A
C742       C1077   1.510       .  S
C743        C744   1.408       .  A
C743        H748   1.084       .  S
C744        C745   1.417       .  A
C744       C1009   1.493       .  S
C745        C746   1.408       .  A
C745       C1030   1.501       .  S
C746        H747   1.084       .  S
C749        C750   1.416       .  A
C749        C754   1.420       .  A
C749        C972   1.447       .  S
C750        C751   1.413       .  A
C750        C976   1.498       .  S
C751        C752   1.420       .  A
C751       C1016   1.501       .  S
C752        C753   1.420       .  A
C752        C973   1.446       .  S
C753        C754   1.418       .  A
C753        C996   1.504       .  S
C754        C986   1.502       .  S
C755        C756   1.417       .  A
C755        C760   1.419       .  A
C755        C937   1.448       .  S
C756        C757   1.415       .  A
C756       C1006   1.496       .  S
C757        C758   1.419       .  A
C757        C942   1.501       .  S
C758        C759   1.418       .  A
C758        C939   1.448       .  S
C759        C760   1.416       .  A
C759        C952   1.496       .  S
C760        C962   1.503       .  S
C761        C762   1.432       .  A
C761        C766   1.417       .  A
C761       C1101   1.506       .  S
C762        C763   1.416       .  A
C762       C1132   1.513       .  S
C763        C764   1.405       .  A
C763        H768   1.083       .  S
C764        C765   1.416       .  A
C764        C979   1.497       .  S
C765        C766   1.409       .  A
C765        C945   1.499       .  S
C766        H767   1.084       .  S
C769        C770   1.424       .  A
C769       C2106   1.409   1_455  A
C769       C1203   1.498       .  S
C770       C2103   1.418   1_455  A
C770       C1297   1.512       .  S
C771       C2102   1.418       .  A
C771        C772   1.414       .  A
C771        H776   1.081       .  S
C772        C773   1.423       .  A
C772        C999   1.506       .  S
C773        C774   1.408       .  A
C773        C965   1.502       .  S
C774       C2101   1.409       .  A
C774        H775   1.084       .  S
C777        C778   1.437       .  A
C777        C782   1.413       .  A
C777       C1179   1.510       .  S
C778        C779   1.419       .  A
C778       C1307   1.516       .  S
C779        C780   1.409       .  A
C779        H784   1.084       .  S
C780        C781   1.413       .  A
C780       C1063   1.500       .  S
C781        C782   1.402       .  A
C781        C955   1.491       .  S
C782        H783   1.083       .  S
C785        C786   1.425       .  A
C785        C790   1.410       .  A
C785       C1169   1.498       .  S
C786        C787   1.409       .  A
C786       C1210   1.503       .  S
C787        H792   1.083       .  S
C788        C789   1.420       .  A
C788       C1050   1.494       .  S
C789        C989   1.501       .  S
C790        H791   1.084       .  S
O793       Mg795   2.131       .  S
O793       Mg801   2.147   1_554  S
O793        C828   1.234       .  S
C794        H833   1.081       .  S
C794        O807   1.234       .  S
Mg795       O824   2.138   1_554  S
Mg795       O839   2.253   1_554  S
Mg795       O835   2.226       .  S
Mg795       O806   2.303       .  S
O796       Mg838   2.133   1_554  S
O796        C817   1.232       .  S
O797       C2160   1.268       .  A
O797       Mg821   2.296       .  S
C798       C1072   1.416       .  S
C798       O2132   1.263       .  A
C798        O812   1.266       .  A
O799        C827   1.269       .  A
O799       Mg801   2.306       .  S
O800       C2130   1.263       .  A
O800       Mg832   2.220       .  S
Mg801      O2139   2.127   1_455  S
Mg801       O815   2.241       .  S
Mg801       O803   2.243       .  S
C802       C1095   1.409       .  S
C802        O840   1.263       .  A
C802        O808   1.265       .  A
O803       C2142   1.264   1_455  A
H804        C817   1.081       .  S
C805        H830   1.081       .  S
C805        O819   1.234       .  S
C805       O2152   1.268       .  A
O807      Mg2133   2.127       .  S
O807       Mg821   2.157   1_556  S
O808       Mg838   2.251   1_554  S
C809       C1118   1.420       .  S
C809        O822   1.264       .  A
C810       C1069   1.406       .  S
C810       O2135   1.264       .  A
C810        O837   1.262   1_556  A
Mg811      O2150   2.128       .  S
Mg811       O819   2.167   1_554  S
Mg811       O812   2.263   1_554  S
Mg811       O813   2.292       .  S
Mg811       O840   2.217       .  S
O813        C817   1.266       .  A
O814       Mg821   2.255   1_556  S
O815        C834   1.263       .  A
O816        C836   1.265   1_565  A
O816       Mg832   2.261   1_554  S
O818      Mg2143   2.128   1_455  S
O818       Mg832   2.147   1_554  S
O818        C829   1.235       .  S
O819       Mg838   2.139       .  S
O820       C2137   1.268   1_455  A
O820       Mg832   2.302       .  S
Mg821       O837   2.209       .  S
O822       Mg838   2.244       .  S
H823        C828   1.081       .  S
O824        C827   1.234       .  S
H825        C827   1.081       .  S
H826        C829   1.081       .  S
C828       O2129   1.268   1_455  A
O831       Mg838   2.307       .  S
C834       C1094   1.419       .  S
C834        O839   1.263       .  A
C836       C1120   1.416       .  S
O841       Mg843   2.141       .  S
O841       Mg849   2.162       .  S
O841        C876   1.234       .  S
C842        H881   1.081       .  S
C842        O855   1.235       .  S
C842        O879   1.268       .  A
Mg843       O872   2.157       .  S
Mg843       O887   2.290       .  S
Mg843       O883   2.242       .  S
Mg843       O854   2.293       .  S
O844       Mg886   2.156       .  S
O844       Mg869   2.127       .  S
O844        C865   1.234       .  S
O845        C876   1.268       .  A
O845       Mg869   2.292       .  S
C846       C1162   1.421       .  S
C846        O848   1.269       .  A
C846        O860   1.268       .  A
O847        C875   1.268       .  A
O847       Mg849   2.296       .  S
O848       Mg880   2.246       .  S
Mg849       O855   2.128       .  S
Mg849       O863   2.233       .  S
Mg849       O851   2.305       .  S
C850       C1196   1.422       .  S
C850        O888   1.267       .  A
C850        O856   1.268       .  A
O851        C858   1.273       .  A
H852        C865   1.081       .  S
C853        H878   1.081       .  S
C853        O867   1.235       .  S
C853        O868   1.268       .  A
O854        C877   1.268       .  A
O855       Mg869   2.155       .  S
O856       Mg886   2.276       .  S
C857       C1290   1.418       .  S
C857        O870   1.266       .  A
C857        O862   1.268       .  A
C858       C1163   1.428       .  S
C858        O885   1.266       .  A
Mg859       O866   2.131       .  S
Mg859       O867   2.157       .  S
Mg859       O860   2.273       .  S
Mg859       O861   2.288       .  S
Mg859       O888   2.237       .  S
O861        C865   1.267       .  A
O862       Mg869   2.274       .  S
O863        C882   1.268       .  A
O864        C884   1.272       .  A
O864       Mg880   2.296       .  S
O866       Mg880   2.152       .  S
O866        C877   1.234       .  S
O867       Mg886   2.126       .  S
O868       Mg880   2.292       .  S
Mg869       O885   2.232       .  S
O870       Mg886   2.224       .  S
H871        C876   1.081       .  S
O872       Mg880   2.137       .  S
O872        C875   1.234       .  S
H873        C875   1.081       .  S
H874        C877   1.081       .  S
O879       Mg886   2.293       .  S
C882       C1197   1.423       .  S
C882        O887   1.271       .  A
O883        C884   1.269       .  A
C884       C1291   1.426       .  S
O889       Mg891   2.139       .  S
O889       Mg897   2.157       .  S
O889        C924   1.235       .  S
C890        H929   1.081       .  S
C890        O903   1.235       .  S
C890        O927   1.270       .  A
Mg891       O920   2.158       .  S
Mg891       O935   2.273       .  S
Mg891       O931   2.257       .  S
Mg891       O902   2.292       .  S
O892       Mg934   2.152       .  S
O892       Mg917   2.137       .  S
O892        C913   1.234       .  S
O893        C924   1.269       .  A
O893       Mg917   2.299       .  S
C894       C1028   1.425       .  S
C894        O896   1.267       .  A
C894        O908   1.270       .  A
O895        C923   1.268       .  A
O895       Mg897   2.295       .  S
O896       Mg928   2.252       .  S
Mg897       O903   2.142       .  S
Mg897       O911   2.253       .  S
Mg897       O899   2.272       .  S
C898        C971   1.424       .  S
C898        O936   1.267       .  A
C898        O904   1.270       .  A
O899        C906   1.269       .  A
H900        C913   1.081       .  S
C901        H926   1.081       .  S
C901        O915   1.235       .  S
C901        O916   1.268       .  A
O902        C925   1.268       .  A
O903       Mg917   2.157       .  S
O904       Mg934   2.279       .  S
C905        C940   1.426       .  S
C905        O918   1.268       .  A
C905        O910   1.269       .  A
C906       C1025   1.424       .  S
C906        O933   1.267       .  A
Mg907       O914   2.130       .  S
Mg907       O915   2.162       .  S
Mg907       O908   2.275       .  S
Mg907       O909   2.299       .  S
Mg907       O936   2.245       .  S
O909        C913   1.269       .  A
O910       Mg917   2.278       .  S
O911        C930   1.268       .  A
O912        C932   1.269       .  A
O912       Mg928   2.271       .  S
O914       Mg928   2.160       .  S
O914        C925   1.234       .  S
O915       Mg934   2.136       .  S
O916       Mg928   2.295       .  S
Mg917       O933   2.250       .  S
O918       Mg934   2.256       .  S
H919        C924   1.081       .  S
O920       Mg928   2.131       .  S
O920        C923   1.234       .  S
H921        C923   1.081       .  S
H922        C925   1.081       .  S
O927       Mg934   2.303       .  S
C930        C974   1.424       .  S
C930        O935   1.269       .  A
O931        C932   1.268       .  A
C932        C938   1.425   1_455  S
C937       C2270   1.202       .  T
C938       C2269   1.202       .  T
C939        C940   1.202       .  T
C941        C942   1.403       .  A
C941        C946   1.391       .  A
C941        H947   1.084       .  S
C942        C943   1.409       .  A
C943        C944   1.411       .  A
C943        H948   1.083       .  S
C944        C945   1.411       .  A
C944        H949   1.082       .  S
C945        C946   1.405       .  A
C946        H950   1.083       .  S
C951        C952   1.400       .  A
C951        C956   1.398       .  A
C951        H957   1.083       .  S
C952        C953   1.411       .  A
C953        C954   1.401       .  A
C953        H958   1.083       .  S
C954        C955   1.402       .  A
C954        H959   1.083       .  S
C955        C956   1.411       .  A
C956        H960   1.083       .  S
C961        C962   1.404       .  A
C961        C966   1.390       .  A
C961       H2299   1.084       .  S
C962        C963   1.409       .  A
C963        C964   1.411       .  A
C963        H968   1.082       .  S
C964        C965   1.411       .  A
C964        H969   1.082       .  S
C965        C966   1.406       .  A
C966       H2302   1.083       .  S
H967       C2293   1.084       .  S
H970       C2298   1.083   1_455  S
C973       C2306   1.201       .  T
C974       C2305   1.201   1_455  T
C975        C976   1.411       .  A
C975        H981   1.083       .  S
C977        C978   1.401       .  A
C977        H982   1.083       .  S
C978        C979   1.413   1_545  A
C978        H983   1.083       .  S
C979        C980   1.403       .  A
C980        H984   1.082       .  S
C985        C986   1.404       .  A
C985        C990   1.390       .  A
C986        C987   1.409       .  A
C987        C988   1.410       .  A
C987        H992   1.082       .  S
C988        C989   1.411       .  A
C988        H993   1.082       .  S
C989        C990   1.405       .  A
C995        C996   1.409       .  A
C995       C1000   1.399       .  A
C995       H1001   1.084       .  S
C996        C997   1.402       .  A
C997        C998   1.403       .  A
C997       H1002   1.083       .  S
C998        C999   1.414       .  A
C998       H2335   1.083       .  S
C999       C1000   1.406       .  A
C1000      H1004   1.081       .  S
H1003      C2330   1.083       .  S
C1005      C1006   1.411       .  A
C1005      C2342   1.400       .  A
C1005      H1011   1.083       .  S
C1006      C1007   1.400       .  A
C1007      C2340   1.398       .  A
C1007      H1012   1.083       .  S
C1008      C2339   1.398       .  A
C1008      C1009   1.411   1_655  A
C1008      H1013   1.083       .  S
C1009      C1010   1.403       .  A
C1010      C2337   1.400       .  A
C1010      H1014   1.083       .  S
C1015      C1016   1.408       .  A
C1015      C1020   1.411       .  A
C1015      H1021   1.083       .  S
C1016      C2349   1.403       .  A
C1017      C2348   1.403       .  A
C1017      C1018   1.392   1_655  A
C1017      H1022   1.084       .  S
C1018      C1019   1.406       .  A
C1018      H1023   1.083       .  S
C1019      C2352   1.411       .  A
C1020      C2351   1.411       .  A
C1020      H1024   1.082       .  S
C1025      C1026   1.200       .  T
C1029      C1030   1.411       .  A
C1029      H1035   1.082       .  S
C1030      C1031   1.406       .  A
C1031      H1036   1.083       .  S
C1032      C1033   1.403       .  A
C1032      H1037   1.084       .  S
C1033      C1034   1.409       .  A
C1034      H1038   1.083       .  S
C1039      C1040   1.411       .  A
C1039      C1044   1.401       .  A
C1039      H1045   1.083       .  S
C1040      C1041   1.401       .  A
C1041      C1042   1.399       .  A
C1041      H1046   1.083       .  S
C1042      C1043   1.412       .  A
C1042      H1047   1.083       .  S
C1043      C1044   1.403       .  A
C1044      H1048   1.082       .  S
C1049      C1050   1.404       .  A
C1049      C1054   1.396       .  A
C1049      H1055   1.082       .  S
C1050      C1051   1.411       .  A
C1051      C1052   1.398       .  A
C1052      C1053   1.401       .  A
C1052      H1057   1.082       .  S
C1053      C1054   1.408       .  A
C1054      H1058   1.083       .  S
C1059      C1060   1.401       .  A
C1059      C1064   1.392       .  A
C1059      H1065   1.084       .  S
C1060      C1061   1.409       .  A
C1061      C1062   1.411       .  A
C1061      H1066   1.083       .  S
C1062      C1063   1.411       .  A
C1062      H1067   1.082       .  S
C1063      C1064   1.407       .  A
C1064      H1068   1.083       .  S
C1069      C1070   1.191       .  T
C1071      C1072   1.197       .  T
C1073      C1074   1.408       .  A
C1073      C1078   1.414       .  A
C1073      H1079   1.083       .  S
C1074      C1075   1.401       .  A
C1075      C1076   1.390       .  A
C1075      H1080   1.084   1_455  S
C1076      C1077   1.409       .  A
C1076      H1081   1.082       .  S
C1077      C1078   1.414       .  A
C1078      H1082   1.082       .  S
C1083      C1084   1.405       .  A
C1083      C1088   1.400       .  A
C1083      H2421   1.081       .  S
C1084      C1085   1.414       .  A
C1085      C1086   1.406       .  A
C1085      H1090   1.083       .  S
C1086      C1087   1.406       .  A
C1086      H1091   1.082       .  S
C1087      C1088   1.411       .  A
C1088      H1092   1.083       .  S
H1089      C2415   1.081       .  S
C1093      C1094   1.198       .  T
C1095      C1096   1.193       .  T
C1097      C1098   1.404       .  A
C1097      C1102   1.397       .  A
C1097      H1103   1.082       .  S
C1098      C1099   1.414       .  A
C1099      C1100   1.409       .  A
C1099      H1104   1.083       .  S
C1100      C1101   1.407       .  A
C1100      H1105   1.082       .  S
C1101      C1102   1.411       .  A
C1102      H1106   1.083       .  S
C1107      C1108   1.400       .  A
C1107      C1112   1.389       .  A
C1107      H1113   1.084       .  S
C1108      C1109   1.408       .  A
C1109      C1110   1.412       .  A
C1109      H1114   1.083       .  S
C1110      C1111   1.413       .  A
C1110      H1115   1.081       .  S
C1111      C1112   1.411       .  A
C1112      H1116   1.082       .  S
C1117      C1118   1.199       .  T
C1119      C1120   1.196       .  T
C1121      C1122   1.406       .  A
C1121      C1126   1.404       .  A
C1121      H1127   1.082       .  S
C1122      C1123   1.409       .  A
C1123      C1124   1.395       .  A
C1123      H1128   1.083       .  S
C1124      C1125   1.402       .  A
C1125      C1126   1.411       .  A
C1126      H1130   1.083       .  S
C1131      C1132   1.414       .  A
C1131      C1136   1.415       .  A
C1131      H1137   1.081       .  S
C1132      C1133   1.412       .  A
C1133      C1134   1.388       .  A
C1133      H1138   1.082       .  S
C1134      C1135   1.399       .  A
C1135      C1136   1.409       .  A
C1136      H1140   1.083       .  S
C1141      C1142   1.415       .  A
C1141      C1146   1.400       .  A
C1141      H1147   1.083       .  S
C1142      C1143   1.405       .  A
C1143      C1144   1.404       .  A
C1143      H1148   1.082       .  S
C1144      C1145   1.413       .  A
C1144      H1149   1.083       .  S
C1145      C1146   1.402       .  A
C1146      H2482   1.083       .  S
H1150      C2478   1.083       .  S
C1151      C1152   1.412       .  A
C1151      C1156   1.390       .  A
C1151      H1157   1.082       .  S
C1152      C1153   1.415       .  A
C1153      C1154   1.420       .  A
C1153      H1158   1.082       .  S
C1154      C1155   1.412       .  A
C1154      H1159   1.082       .  S
C1155      C1156   1.401       .  A
C1156      H1160   1.084       .  S
C1163      C1164   1.204       .  T
C1165      C1166   1.407       .  A
C1165      C1170   1.404       .  A
C1165      H1171   1.077       .  S
C1166      C1167   1.401       .  A
C1167      C1168   1.391       .  A
C1168      C1169   1.409       .  A
C1169      C1170   1.407       .  A
C1170      H1174   1.082       .  S
C1175      C1176   1.399       .  A
C1175      C1180   1.393       .  A
C1175      H1181   1.084       .  S
C1176      C1177   1.407       .  A
C1177      C1178   1.405       .  A
C1177      H1182   1.078       .  S
C1178      C1179   1.406       .  A
C1178      H1183   1.080       .  S
C1179      C1180   1.416       .  A
C1180      H1184   1.082       .  S
C1185      C1186   1.409       .  A
C1185      C1190   1.411       .  A
C1185      H1191   1.082       .  S
C1186      C1187   1.402       .  A
C1187      C1188   1.386       .  A
C1187      H1192   1.084       .  S
C1188      C1189   1.406       .  A
C1188      H1193   1.083       .  S
C1189      C1190   1.412       .  A
C1190      H1194   1.082       .  S
C1197      C2530   1.200       .  T
C1198      C2529   1.200   1_455  T
C1199      C1200   1.402       .  A
C1199      C1204   1.388       .  A
C1199      H1205   1.084       .  S
C1200      C1201   1.409       .  A
C1201      C1202   1.411       .  A
C1201      H1206   1.083       .  S
C1202      C1203   1.411       .  A
C1202      H1207   1.082       .  S
C1203      C1204   1.405       .  A
C1204      H1208   1.083   1_455  S
C1209      C1210   1.414       .  A
C1209      C1214   1.403       .  A
C1209      H1215   1.083       .  S
C1210      C1211   1.404       .  A
C1211      C1212   1.399       .  A
C1211      H1216   1.082       .  S
C1212      C1213   1.410       .  A
C1212      H1217   1.083       .  S
C1213      C1214   1.402       .  A
C1214      H1218   1.083       .  S
C1219      C2552   1.409       .  A
C1219      C1224   1.400       .  A
C1219      H1225   1.083       .  S
C1220      C2551   1.409   1_455  A
C1220      C1221   1.404       .  A
C1221      C1222   1.405       .  A
C1221      H1226   1.083       .  S
C1222      C2555   1.414   1_455  A
C1222      H1227   1.083       .  S
C1223      C2554   1.414       .  A
C1223      C1224   1.407       .  A
C1224      H1228   1.082       .  S
C1229      C1230   1.406       .  A
C1229      C1234   1.399       .  A
C1229      H1235   1.084       .  S
C1230      C1231   1.412       .  A
C1231      C1232   1.413       .  A
C1231      H1236   1.080       .  S
C1232      C1233   1.411       .  A
C1232      H1237   1.081       .  S
C1233      C1234   1.412       .  A
C1234      H2570   1.083       .  S
H1238      C2566   1.083   1_455  S
C1239      C1240   1.405       .  A
C1239      C1244   1.400       .  A
C1239      H1245   1.060       .  S
C1240      C1241   1.416       .  A
C1241      C1242   1.402       .  A
C1241      H1246   1.083       .  S
C1242      C1243   1.405       .  A
C1243      C1244   1.400       .  A
C1244      H1248   1.075       .  S
C1249      C1254   1.401       .  A
C1249      H1255   1.084       .  S
C1250      C1251   1.402       .  A
C1251      C1252   1.405       .  A
C1251      H1256   1.083       .  S
C1252      H1257   1.083       .  S
C1253      C1254   1.405       .  A
C1254      H1258   1.082       .  S
C1259      C1260   1.412       .  A
C1259      C1264   1.400       .  A
C1259      H1265   1.083       .  S
C1260      C1261   1.406       .  A
C1261      C1262   1.407       .  A
C1261      H1266   1.083       .  S
C1262      C1263   1.415       .  A
C1262      H1267   1.082       .  S
C1263      C1264   1.404       .  A
C1264      H1268   1.081       .  S
C1269      C1270   1.417       .  A
C1269      C1274   1.396       .  A
C1269      H1275   1.081       .  S
C1270      C1271   1.410       .  A
C1271      C1272   1.410       .  A
C1271      H1276   1.080       .  S
C1272      C1273   1.411       .  A
C1272      H1277   1.078       .  S
C1273      C1274   1.401       .  A
C1274      H1278   1.084       .  S
C1279      C1280   1.411       .  A
C1279      H1285   1.082       .  S
C1280      C1281   1.405       .  A
C1281      H1286   1.083       .  S
C1282      C1283   1.402       .  A
C1282      H1287   1.084       .  S
C1283      C1284   1.409       .  A
C1284      H1288   1.082       .  S
C1289      C1290   1.198       .  T
C1291      C2624   1.202       .  T
C1292      C2623   1.202   1_455  T
C1293      C1294   1.412       .  A
C1293      C1298   1.407       .  A
C1293      H1299   1.083       .  S
C1294      C1295   1.402       .  A
C1295      C1296   1.396       .  A
C1295      H1300   1.074       .  S
C1296      C1297   1.410       .  A
C1296      H1301   1.082       .  S
C1297      C1298   1.410       .  A
C1298      H1302   1.081       .  S
C1303      C1304   1.398       .  A
C1303      C1308   1.394       .  A
C1303      H1309   1.076       .  S
C1304      C1305   1.415       .  A
C1305      C1306   1.413       .  A
C1305      H1310   1.082       .  S
C1306      C1307   1.411       .  A
C1306      H1311   1.082       .  S
C1307      C1308   1.411       .  A
C1308      H1312   1.082       .  S
C1313      C2646   1.409       .  A
C1313      C1318   1.411       .  A
C1313      H1319   1.082       .  S
C1314      C2645   1.409       .  A
C1314      C1315   1.404       .  A
C1315      C1316   1.391   1_455  A
C1315      H1320   1.084       .  S
C1316      C2649   1.406       .  A
C1316      H1321   1.083       .  S
C1317      C2648   1.406       .  A
C1317      C1318   1.412       .  A
C1318      H1322   1.082       .  S
C1323      C1324   1.404       .  A
C1323      C1328   1.407       .  A
C1323      H1329   1.083       .  S
C1324      C1325   1.408       .  A
C1325      C1326   1.398       .  A
C1325      H1330   1.084       .  S
C1326      C1327   1.407       .  A
C1326      H1331   1.081       .  S
C1327      C1328   1.415       .  A
C1328      H1332   1.082       .  S
C1333      C1334   1.422       .  A
C1333      C1338   1.424       .  A
C1333      C1955   1.441       .  S
C1334      C1335   1.416       .  A
C1334      C1990   1.507       .  S
C1335      C1336   1.421       .  A
C1335      C1980   1.503       .  S
C1336      C1337   1.419       .  A
C1336      C1958   1.449       .  S
C1337      C1338   1.428       .  A
C1337      C1960   1.508       .  S
C1338      C1970   1.514       .  S
C1339      C1340   1.421       .  A
C1339      C1344   1.414       .  A
C1339      C1993   1.511       .  S
C1340      C1341   1.407       .  A
C1340      C1946   1.500       .  S
C1341      C1342   1.411       .  A
C1341      H1346   1.080       .  S
C1342      C1343   1.435       .  A
C1342      C1936   1.522       .  S
C1343      C1344   1.421       .  A
C1343      C1926   1.507       .  S
C1344      H1345   1.082       .  S
C1347      C1348   1.423       .  A
C1347      C1352   1.411       .  A
C1347      C1919   1.510       .  S
C1348      C1349   1.413       .  A
C1348      C1983   1.502       .  S
C1349      C1350   1.411       .  A
C1349      H1354   1.084       .  S
C1350      C1351   1.437       .  A
C1350      C1896   1.511       .  S
C1351      C1352   1.418       .  A
C1351      C1906   1.516       .  S
C1352      H1353   1.083       .  S
C1355      C1356   1.420       .  A
C1355      C1360   1.422       .  A
C1355      C1864   1.445       .  S
C1356      C1357   1.417       .  A
C1356      C1886   1.506       .  S
C1357      C1358   1.422       .  A
C1357      C1949   1.500       .  S
C1358      C1359   1.417       .  A
C1358      C1861   1.445       .  S
C1359      C1360   1.413       .  A
C1359      C1879   1.503       .  S
C1360      C1866   1.499       .  S
C1361      C1362   1.418       .  A
C1361      C1366   1.418       .  A
C1361      C1827   1.443       .  S
C1362      C1363   1.417       .  A
C1362      C1916   1.507       .  S
C1363      C1364   1.424       .  A
C1363      C1852   1.498       .  S
C1364      C1365   1.420       .  A
C1364      C1830   1.452       .  S
C1365      C1366   1.414       .  A
C1365      C1842   1.500       .  S
C1366      C1832   1.496       .  S
C1367      C1368   1.419       .  A
C1367      C1372   1.412       .  A
C1367      C1889   1.508       .  S
C1368      C1369   1.408       .  A
C1368      C1855   1.500       .  S
C1369      C1370   1.411       .  A
C1369      H1374   1.081       .  S
C1370      C1371   1.432       .  A
C1370      C1818   1.520       .  S
C1371      C1372   1.421       .  A
C1371      C1808   1.505       .  S
C1372      H1373   1.082       .  S
C1375      C2042   1.421   1_556  A
C1375      C1380   1.421       .  A
C1375      C1783   1.442       .  S
C1376      C2041   1.421   1_544  A
C1376      C1377   1.422       .  A
C1376      C1909   1.503       .  S
C1377      C2044   1.420       .  A
C1377      C1939   1.509       .  S
C1378      C2043   1.420       .  A
C1378      C1379   1.420   1_554  A
C1378      C1785   1.438       .  S
C1379      C1380   1.414       .  A
C1379      C1791   1.504       .  S
C1380      C1801   1.504       .  S
C1381      C1382   1.427       .  A
C1381      C1386   1.420   1_554  A
C1381      C1762   1.432       .  S
C1382      C1383   1.423       .  A
C1382      C1821   1.514       .  S
C1383      C1384   1.427   1_554  A
C1383      C1929   1.515       .  S
C1384      C1385   1.424       .  A
C1384      C1759   1.439       .  S
C1385      C1386   1.412       .  A
C1385      C1774   1.505       .  S
C1386      C1764   1.515       .  S
C1387      C1388   1.427   1_455  A
C1387      C1736   1.429   1_454  S
C1388      C1389   1.426       .  A
C1388      C1899   1.528       .  S
C1389      C1390   1.427   1_655  A
C1389      C1811   1.509       .  S
C1390      C1737   1.439   1_554  S
C1391      C1392   1.412       .  A
C1391      C1740   1.506       .  S
C1392      C1750   1.515       .  S
C1393      C1394   1.418       .  A
C1393      C1398   1.419       .  A
C1393      C1693   1.447       .  S
C1394      C1395   1.413       .  A
C1394      C1719   1.496       .  S
C1395      C1396   1.417       .  A
C1395      C1726   1.499       .  S
C1396      C1397   1.420       .  A
C1396      C1692   1.444       .  S
C1397      C1398   1.417       .  A
C1397      C1706   1.500       .  S
C1398      C1699   1.500       .  S
C1399      C1400   1.429       .  A
C1399      C1404   1.415       .  A
C1399      C1753   1.505       .  S
C1400      C1401   1.414       .  A
C1400      C1777   1.510       .  S
C1401      C1402   1.406       .  A
C1401      H1406   1.083       .  S
C1402      C1403   1.418       .  A
C1402      C1709   1.497       .  S
C1403      C1404   1.411       .  A
C1403      C1685   1.501       .  S
C1404      H1405   1.084       .  S
C1407      C1408   1.427       .  A
C1407      C1412   1.414       .  A
C1407      C1788   1.498       .  S
C1408      C1409   1.413       .  A
C1408      C1743   1.510       .  S
C1409      C1410   1.408       .  A
C1409      H1414   1.084       .  S
C1410      C1411   1.417       .  A
C1410      C1675   1.493       .  S
C1411      C1412   1.408       .  A
C1411      C1696   1.501       .  S
C1412      H1413   1.084       .  S
C1415      C1416   1.416       .  A
C1415      C1420   1.420       .  A
C1415      C1638   1.447       .  S
C1416      C1417   1.413       .  A
C1416      C1642   1.498       .  S
C1417      C1418   1.420       .  A
C1417      C1682   1.501       .  S
C1418      C1419   1.420       .  A
C1418      C1639   1.445       .  S
C1419      C1420   1.418       .  A
C1419      C1662   1.504       .  S
C1420      C1652   1.502       .  S
C1421      C1422   1.417       .  A
C1421      C1426   1.419       .  A
C1421      C1603   1.448       .  S
C1422      C1423   1.415       .  A
C1422      C1672   1.496       .  S
C1423      C1424   1.419       .  A
C1423      C1608   1.501       .  S
C1424      C1425   1.418       .  A
C1424      C1605   1.448       .  S
C1425      C1426   1.416       .  A
C1425      C1618   1.496       .  S
C1426      C1628   1.503       .  S
C1427      C1428   1.432       .  A
C1427      C1432   1.416       .  A
C1427      C1767   1.506       .  S
C1428      C1429   1.416       .  A
C1428      C1798   1.513       .  S
C1429      C1430   1.405       .  A
C1429      H1434   1.083       .  S
C1430      C1431   1.416       .  A
C1430      C1645   1.497       .  S
C1431      C1432   1.409       .  A
C1431      C1611   1.499       .  S
C1432      H1433   1.084       .  S
C1435      C1436   1.424       .  A
C1435      C1869   1.498       .  S
C1436      C1963   1.511       .  S
C1437      C1438   1.414       .  A
C1437      H1442   1.081       .  S
C1438      C1439   1.423       .  A
C1438      C1665   1.505       .  S
C1439      C1440   1.408       .  A
C1439      C1631   1.502       .  S
C1440      H1441   1.084   1_655  S
C1443      C1444   1.437       .  A
C1443      C1448   1.413       .  A
C1443      C1845   1.510       .  S
C1444      C1445   1.419       .  A
C1444      C1973   1.516       .  S
C1445      C1446   1.409       .  A
C1445      H1450   1.084       .  S
C1446      C1447   1.413       .  A
C1446      C1729   1.499       .  S
C1447      C1448   1.402       .  A
C1447      C1621   1.491       .  S
C1448      H1449   1.083       .  S
C1451      C1452   1.425       .  A
C1451      C1456   1.410       .  A
C1451      C1835   1.498       .  S
C1452      C1453   1.409       .  A
C1452      C1876   1.503       .  S
C1453      C2120   1.411       .  A
C1453      H1458   1.083       .  S
C1454      C2119   1.411   1_545  A
C1454      C1455   1.420       .  A
C1454      C1716   1.494       .  S
C1455      C2122   1.406   1_545  A
C1455      C1655   1.501       .  S
C1456      C2121   1.406       .  A
C1456      H1457   1.084       .  S
O1459     Mg1461   2.131       .  S
O1459     Mg1467   2.147   1_554  S
O1459      C1494   1.234       .  S
C1460      H1499   1.081       .  S
C1460      O1473   1.234       .  S
C1460      O2163   1.270   1_545  A
Mg1461     O1490   2.137   1_554  S
Mg1461     O1505   2.254   1_554  S
Mg1461     O1501   2.227       .  S
Mg1461     O1472   2.303       .  S
O1462     Mg1504   2.133   1_554  S
O1462     Mg2153   2.117       .  S
O1462      C1483   1.232       .  S
O1463     Mg1487   2.296       .  S
C1464      C1738   1.416       .  S
C1464      O1478   1.266   1_455  A
O1465      C1493   1.269       .  A
O1465     Mg1467   2.306       .  S
O1466     Mg1498   2.221       .  S
Mg1467     O1481   2.240       .  S
Mg1467     O1469   2.243       .  S
C1468      C1761   1.409       .  S
C1468      O1506   1.263       .  A
C1468      O1474   1.265       .  A
H1470      C1483   1.081       .  S
C1471      H1496   1.081       .  S
C1471      O1485   1.234       .  S
O1472      C2161   1.270   1_545  A
O1473     Mg1487   2.156   1_556  S
O1474     Mg1504   2.251   1_554  S
C1475      C1784   1.420       .  S
C1475      O1488   1.264       .  A
C1475      O2146   1.264       .  A
C1476      C1735   1.406       .  S
C1476      O1503   1.262   1_556  A
Mg1477     O1485   2.167   1_554  S
Mg1477     O1478   2.263   1_554  S
Mg1477     O1479   2.292       .  S
Mg1477     O1506   2.217       .  S
O1479      C1483   1.266       .  A
O1480      C2141   1.263   1_545  A
O1480     Mg1487   2.255   1_556  S
O1481      C1500   1.263       .  A
O1482      C1502   1.265       .  A
O1482     Mg1498   2.261   1_554  S
O1484     Mg1498   2.146   1_554  S
O1484      C1495   1.235       .  S
O1485     Mg1504   2.138       .  S
O1486     Mg1498   2.303       .  S
Mg1487     O2128   2.117   1_545  S
Mg1487     O1503   2.209       .  S
O1488     Mg1504   2.244       .  S
H1489      C1494   1.081       .  S
O1490     Mg2164   2.118   1_545  S
O1490      C1493   1.234       .  S
H1491      C1493   1.081       .  S
H1492      C1495   1.081       .  S
C1495      O2138   1.270       .  A
O1497      C2126   1.270       .  A
O1497     Mg1504   2.307       .  S
Mg1498     O2156   2.119       .  S
C1500      C1760   1.418       .  S
C1500      O1505   1.263       .  A
O1501      C2168   1.263       .  A
C1502      C1786   1.415       .  S
C1502      O2167   1.263       .  A
O1507     Mg1509   2.141       .  S
O1507     Mg1515   2.162       .  S
O1507      C1542   1.234       .  S
C1508      H1547   1.081       .  S
C1508      O1521   1.235       .  S
C1508      O1545   1.268       .  A
Mg1509     O1538   2.157       .  S
Mg1509     O1553   2.290       .  S
Mg1509     O1549   2.241       .  S
Mg1509     O1520   2.293       .  S
O1510     Mg1552   2.156       .  S
O1510     Mg1535   2.127       .  S
O1510      C1531   1.234       .  S
O1511      C1542   1.268       .  A
O1511     Mg1535   2.292       .  S
C1512      C1828   1.421   1_545  S
C1512      O1514   1.269       .  A
C1512      O1526   1.268       .  A
O1513      C1541   1.268       .  A
O1513     Mg1515   2.296       .  S
O1514     Mg1546   2.246       .  S
Mg1515     O1521   2.128       .  S
Mg1515     O1529   2.233       .  S
Mg1515     O1517   2.305       .  S
C1516      C1862   1.422       .  S
C1516      O1554   1.267       .  A
C1516      O1522   1.268       .  A
O1517      C1524   1.273       .  A
H1518      C1531   1.081       .  S
C1519      H1544   1.081       .  S
C1519      O1533   1.235       .  S
C1519      O1534   1.268       .  A
O1520      C1543   1.268       .  A
O1521     Mg1535   2.155       .  S
O1522     Mg1552   2.276       .  S
C1523      C1956   1.418       .  S
C1523      O1536   1.265       .  A
C1523      O1528   1.268       .  A
C1524      C1829   1.428       .  S
C1524      O1551   1.266       .  A
Mg1525     O1532   2.131       .  S
Mg1525     O1533   2.157       .  S
Mg1525     O1526   2.273       .  S
Mg1525     O1527   2.288       .  S
Mg1525     O1554   2.237       .  S
O1527      C1531   1.267       .  A
O1528     Mg1535   2.274       .  S
O1529      C1548   1.268       .  A
O1530      C1550   1.272       .  A
O1530     Mg1546   2.295       .  S
O1532     Mg1546   2.152       .  S
O1532      C1543   1.234       .  S
O1533     Mg1552   2.127       .  S
O1534     Mg1546   2.292       .  S
Mg1535     O1551   2.232       .  S
O1536     Mg1552   2.224       .  S
H1537      C1542   1.081       .  S
O1538     Mg1546   2.137       .  S
O1538      C1541   1.234       .  S
H1539      C1541   1.081       .  S
H1540      C1543   1.081       .  S
O1545     Mg1552   2.293       .  S
C1548      C1863   1.423       .  S
C1548      O1553   1.271       .  A
O1549      C1550   1.268       .  A
C1550      C1957   1.426       .  S
O1555     Mg1557   2.139       .  S
O1555     Mg1563   2.157       .  S
O1555      C1590   1.235       .  S
C1556      H1595   1.081       .  S
C1556      O1569   1.235       .  S
C1556      O1593   1.270       .  A
Mg1557     O1586   2.158       .  S
Mg1557     O1601   2.273       .  S
Mg1557     O1597   2.257       .  S
Mg1557     O1568   2.292       .  S
O1558     Mg1600   2.152       .  S
O1558     Mg1583   2.137       .  S
O1558      C1579   1.234       .  S
O1559      C1590   1.269       .  A
O1559     Mg1583   2.299       .  S
C1560      C1694   1.425       .  S
C1560      O1562   1.267       .  A
C1560      O1574   1.270       .  A
O1561      C1589   1.268       .  A
O1561     Mg1563   2.295       .  S
O1562     Mg1594   2.251       .  S
Mg1563     O1569   2.142       .  S
Mg1563     O1577   2.252       .  S
Mg1563     O1565   2.272       .  S
C1564      C1637   1.424       .  S
C1564      O1602   1.267       .  A
C1564      O1570   1.270       .  A
O1565      C1572   1.269       .  A
H1566      C1579   1.081       .  S
C1567      H1592   1.081       .  S
C1567      O1581   1.235       .  S
C1567      O1582   1.268       .  A
O1568      C1591   1.268       .  A
O1569     Mg1583   2.157       .  S
O1570     Mg1600   2.279       .  S
C1571      C1606   1.426       .  S
C1571      O1584   1.268       .  A
C1571      O1576   1.269       .  A
C1572      C1691   1.423       .  S
C1572      O1599   1.267       .  A
Mg1573     O1580   2.130       .  S
Mg1573     O1581   2.162       .  S
Mg1573     O1574   2.275       .  S
Mg1573     O1575   2.299       .  S
Mg1573     O1602   2.245       .  S
O1575      C1579   1.269       .  A
O1576     Mg1583   2.278       .  S
O1577      C1596   1.268       .  A
O1578      C1598   1.269       .  A
O1578     Mg1594   2.271       .  S
O1580     Mg1594   2.160       .  S
O1580      C1591   1.234       .  S
O1581     Mg1600   2.136       .  S
O1582     Mg1594   2.295       .  S
Mg1583     O1599   2.250       .  S
O1584     Mg1600   2.256       .  S
H1585      C1590   1.081       .  S
O1586     Mg1594   2.131       .  S
O1586      C1589   1.234       .  S
H1587      C1589   1.081       .  S
H1588      C1591   1.081       .  S
O1593     Mg1600   2.303       .  S
C1596      C1640   1.424       .  S
C1596      O1601   1.269       .  A
O1597      C1598   1.268       .  A
C1598      C1604   1.425       .  S
C1605      C1606   1.202       .  T
C1607      C1608   1.403       .  A
C1607      C1612   1.391       .  A
C1607      H1613   1.084       .  S
C1608      C1609   1.409       .  A
C1609      C1610   1.411       .  A
C1609      H1614   1.083       .  S
C1610      C1611   1.411       .  A
C1610      H1615   1.082       .  S
C1611      C1612   1.405       .  A
C1612      H1616   1.083       .  S
C1617      C1618   1.400       .  A
C1617      C1622   1.398       .  A
C1617      H1623   1.083       .  S
C1618      C1619   1.411       .  A
C1619      C1620   1.401       .  A
C1619      H1624   1.083       .  S
C1620      C1621   1.402       .  A
C1620      H1625   1.083       .  S
C1621      C1622   1.411       .  A
C1622      H1626   1.083       .  S
C1627      C1628   1.404       .  A
C1627      C1632   1.390       .  A
C1628      C1629   1.409       .  A
C1629      C1630   1.411       .  A
C1629      H1634   1.082       .  S
C1630      C1631   1.411       .  A
C1630      H1635   1.082       .  S
C1631      C1632   1.406       .  A
C1637      C2304   1.201       .  T
C1638      C2303   1.201   1_545  T
C1641      C1642   1.411   1_565  A
C1641      C2312   1.400       .  A
C1641      H1647   1.083       .  S
C1642      C2309   1.400       .  A
C1643      C2308   1.400       .  A
C1643      C1644   1.401       .  A
C1643      H1648   1.083       .  S
C1644      C1645   1.413       .  A
C1644      H1649   1.083       .  S
C1645      C1646   1.403       .  A
C1646      C2307   1.400       .  A
C1646      H1650   1.082       .  S
C1651      C1652   1.404       .  A
C1651      C1656   1.390       .  A
C1651      H2323   1.084       .  S
C1652      C1653   1.409       .  A
C1653      C1654   1.410       .  A
C1653      H1658   1.082       .  S
C1654      C1655   1.411       .  A
C1654      H1659   1.082       .  S
C1655      C1656   1.405       .  A
C1656      H2326   1.083   1_545  S
H1657      C2317   1.084       .  S
H1660      C2322   1.083       .  S
C1661      C1662   1.409       .  A
C1661      C1666   1.399       .  A
C1661      H1667   1.084       .  S
C1662      C1663   1.402       .  A
C1663      C1664   1.403       .  A
C1663      H1668   1.082       .  S
C1664      C1665   1.414       .  A
C1665      C1666   1.406       .  A
C1666      H1670   1.081       .  S
C1671      C1672   1.411   1_455  A
C1671      H1677   1.083       .  S
C1672      C1673   1.400       .  A
C1673      H1678   1.083       .  S
C1674      C1675   1.411       .  A
C1674      H1679   1.083       .  S
C1675      C1676   1.403       .  A
C1676      H1680   1.083       .  S
C1681      C1682   1.409       .  A
C1681      C1686   1.411   1_655  A
C1681      H1687   1.083       .  S
C1683      C1684   1.392       .  A
C1683      H1688   1.084       .  S
C1684      C1685   1.406       .  A
C1684      H1689   1.083       .  S
C1686      H1690   1.082       .  S
C1691      C1692   1.200       .  T
C1693      C2360   1.202   1_545  T
C1694      C2359   1.202       .  T
C1695      C1696   1.411       .  A
C1695      C2366   1.412       .  A
C1695      H1701   1.082       .  S
C1696      C1697   1.406       .  A
C1697      C2364   1.391       .  A
C1697      H1702   1.083       .  S
C1698      C2363   1.391   1_545  A
C1698      C1699   1.403       .  A
C1698      H1703   1.084       .  S
C1699      C1700   1.409       .  A
C1700      C2361   1.412   1_545  A
C1700      H1704   1.083       .  S
C1705      C1706   1.411       .  A
C1705      C1710   1.401       .  A
C1705      H1711   1.083       .  S
C1706      C1707   1.401       .  A
C1707      C1708   1.399       .  A
C1707      H1712   1.083       .  S
C1708      C1709   1.412       .  A
C1708      H1713   1.083       .  S
C1709      C1710   1.403       .  A
C1710      H1714   1.082       .  S
C1715      C1716   1.404       .  A
C1715      C1720   1.397       .  A
C1715      H1721   1.082       .  S
C1716      C1717   1.411       .  A
C1717      C1718   1.398       .  A
C1717      H2388   1.083       .  S
C1718      C1719   1.401       .  A
C1718      H1723   1.082       .  S
C1719      C1720   1.408       .  A
C1720      H1724   1.083       .  S
H1722      C2383   1.083       .  S
C1725      C1726   1.402       .  A
C1725      C1730   1.392       .  A
C1725      H1731   1.084       .  S
C1726      C1727   1.409       .  A
C1727      C1728   1.411       .  A
C1727      H1732   1.083       .  S
C1728      C1729   1.410       .  A
C1728      H1733   1.082       .  S
C1729      C1730   1.407       .  A
C1730      H1734   1.083       .  S
C1735      C1736   1.191       .  T
C1737      C1738   1.197       .  T
C1739      C1740   1.409       .  A
C1739      C1744   1.414       .  A
C1739      H1745   1.083       .  S
C1740      C1741   1.401       .  A
C1741      C1742   1.390       .  A
C1741      H1746   1.084       .  S
C1742      C1743   1.409       .  A
C1742      H1747   1.082       .  S
C1743      C1744   1.414       .  A
C1744      H1748   1.082       .  S
C1749      C1750   1.404       .  A
C1749      C1754   1.400       .  A
C1750      C1751   1.414       .  A
C1751      C1752   1.406       .  A
C1751      H1756   1.083       .  S
C1752      C1753   1.406       .  A
C1752      H1757   1.082       .  S
C1753      C1754   1.411       .  A
C1754      H1758   1.083       .  S
C1759      C1760   1.198       .  T
C1761      C1762   1.193       .  T
C1763      C1764   1.404       .  A
C1763      C1768   1.397       .  A
C1763      H1769   1.082       .  S
C1764      C1765   1.414       .  A
C1765      C1766   1.409       .  A
C1765      H1770   1.083       .  S
C1766      C1767   1.407       .  A
C1766      H1771   1.082       .  S
C1767      C1768   1.411       .  A
C1768      H1772   1.083       .  S
C1773      C1774   1.400       .  A
C1773      C1778   1.389       .  A
C1773      H1779   1.084       .  S
C1774      C1775   1.408       .  A
C1775      C1776   1.412       .  A
C1775      H1780   1.083       .  S
C1776      C1777   1.413       .  A
C1776      H1781   1.081       .  S
C1777      C1778   1.411       .  A
C1778      H1782   1.082       .  S
C1783      C1784   1.199       .  T
C1785      C1786   1.196       .  T
C1787      C1788   1.406       .  A
C1787      C1792   1.404       .  A
C1787      H1793   1.082       .  S
C1788      C1789   1.409       .  A
C1789      C1790   1.395       .  A
C1789      H1794   1.083       .  S
C1790      C1791   1.402       .  A
C1790      H2461   1.082       .  S
C1791      C1792   1.411       .  A
C1792      H1796   1.083       .  S
H1795      C2456   1.082       .  S
C1797      C1798   1.414       .  A
C1797      C1802   1.415       .  A
C1797      H1803   1.081       .  S
C1798      C1799   1.412       .  A
C1799      C1800   1.388       .  A
C1799      H1804   1.082       .  S
C1800      C1801   1.399       .  A
C1800      H2471   1.084       .  S
C1801      C1802   1.409       .  A
C1802      H1806   1.083       .  S
H1805      C2466   1.084   1_545  S
C1807      C1808   1.415       .  A
C1807      C1812   1.400       .  A
C1807      H1813   1.083       .  S
C1808      C1809   1.405       .  A
C1809      C1810   1.404       .  A
C1809      H1814   1.082       .  S
C1810      C1811   1.413       .  A
C1810      H1815   1.083       .  S
C1811      C1812   1.402       .  A
C1817      C1818   1.412       .  A
C1817      C1822   1.390       .  A
C1817      H1823   1.082       .  S
C1818      C1819   1.415       .  A
C1819      C1820   1.420       .  A
C1819      H1824   1.082       .  S
C1820      C1821   1.412       .  A
C1820      H1825   1.082       .  S
C1821      C1822   1.401       .  A
C1822      H1826   1.084       .  S
C1827      C2494   1.199       .  T
C1828      C2493   1.199       .  T
C1829      C1830   1.204       .  T
C1831      C1832   1.407       .  A
C1831      C1836   1.404       .  A
C1831      H1837   1.077       .  S
C1832      C1833   1.401       .  A
C1833      C1834   1.391       .  A
C1833      H2504   1.084       .  S
C1834      C1835   1.409       .  A
C1834      H2505   1.083       .  S
C1835      C1836   1.407       .  A
C1836      H1840   1.082       .  S
H1838      C2499   1.084       .  S
H1839      C2500   1.083   1_545  S
C1841      C1842   1.399       .  A
C1841      C1846   1.393       .  A
C1841      H1847   1.084       .  S
C1842      C1843   1.407       .  A
C1843      C1844   1.405       .  A
C1843      H1848   1.078       .  S
C1844      C1845   1.406       .  A
C1844      H1849   1.080       .  S
C1845      C1846   1.416       .  A
C1846      H1850   1.082       .  S
C1851      C1852   1.409       .  A
C1851      C1856   1.411       .  A
C1851      H1857   1.082       .  S
C1852      C1853   1.402       .  A
C1853      C1854   1.386       .  A
C1853      H1858   1.084       .  S
C1854      C1855   1.406       .  A
C1854      H1859   1.083       .  S
C1855      C1856   1.412       .  A
C1856      H1860   1.082       .  S
C1861      C2528   1.199       .  T
C1862      C2527   1.200   1_545  T
C1865      C1866   1.402       .  A
C1865      C1870   1.388       .  A
C1865      H1871   1.084       .  S
C1866      C1867   1.409       .  A
C1867      C1868   1.411       .  A
C1867      H1872   1.083       .  S
C1868      C1869   1.411       .  A
C1868      H1873   1.082       .  S
C1869      C1870   1.405       .  A
C1870      H1874   1.083       .  S
C1875      C1876   1.414       .  A
C1875      C1880   1.403       .  A
C1875      H1881   1.083       .  S
C1876      C1877   1.404       .  A
C1877      C1878   1.399       .  A
C1877      H1882   1.082       .  S
C1878      C1879   1.410       .  A
C1878      H1883   1.083       .  S
C1879      C1880   1.402       .  A
C1880      H1884   1.083       .  S
C1885      C1890   1.400       .  A
C1885      H1891   1.083       .  S
C1886      C1887   1.404       .  A
C1887      C1888   1.405       .  A
C1887      H1892   1.083       .  S
C1888      H1893   1.083       .  S
C1889      C1890   1.407       .  A
C1890      H1894   1.082       .  S
C1895      C1896   1.406       .  A
C1895      C1900   1.399       .  A
C1895      H1901   1.084       .  S
C1896      C1897   1.412       .  A
C1897      C1898   1.413       .  A
C1897      H1902   1.080       .  S
C1898      C1899   1.411       .  A
C1898      H1903   1.081       .  S
C1899      C1900   1.412       .  A
C1905      C1906   1.405       .  A
C1905      C1910   1.400       .  A
C1905      H1911   1.060       .  S
C1906      C1907   1.416       .  A
C1907      C1908   1.402       .  A
C1907      H1912   1.083       .  S
C1908      C1909   1.405       .  A
C1908      H2579   1.083   1_545  S
C1909      C1910   1.400       .  A
C1910      H1914   1.075       .  S
H1913      C2574   1.083       .  S
C1915      C2582   1.411   1_545  A
C1915      C1920   1.401       .  A
C1915      H1921   1.084       .  S
C1916      C2581   1.411       .  A
C1916      C1917   1.402       .  A
C1917      C1918   1.405       .  A
C1917      H1922   1.083       .  S
C1918      C2585   1.416       .  A
C1918      H1923   1.083       .  S
C1919      C2584   1.416   1_545  A
C1919      C1920   1.405       .  A
C1920      H1924   1.082       .  S
C1925      C1926   1.412       .  A
C1925      C1930   1.400       .  A
C1925      H1931   1.083       .  S
C1926      C1927   1.406       .  A
C1927      C1928   1.407       .  A
C1927      H1932   1.083       .  S
C1928      C1929   1.415       .  A
C1928      H1933   1.082       .  S
C1929      C1930   1.404       .  A
C1930      H1934   1.081       .  S
C1935      C1936   1.417       .  A
C1935      C1940   1.396       .  A
C1935      H1941   1.081       .  S
C1936      C1937   1.410       .  A
C1937      C1938   1.410       .  A
C1937      H1942   1.080       .  S
C1938      C1939   1.411       .  A
C1938      H1943   1.078       .  S
C1939      C1940   1.401       .  A
C1940      H1944   1.084   1_545  S
C1945      C1946   1.411       .  A
C1945      C2616   1.411   1_545  A
C1945      H1951   1.082       .  S
C1946      C1947   1.405       .  A
C1947      C2614   1.386   1_545  A
C1947      H1952   1.083       .  S
C1948      C2613   1.386       .  A
C1948      C1949   1.402       .  A
C1948      H1953   1.084       .  S
C1949      C1950   1.409       .  A
C1950      C2611   1.411       .  A
C1950      H1954   1.082       .  S
C1955      C1956   1.198       .  T
C1959      C1960   1.412       .  A
C1959      C1964   1.407       .  A
C1959      H1965   1.083       .  S
C1960      C1961   1.402       .  A
C1961      C1962   1.396       .  A
C1961      H1966   1.074       .  S
C1962      C1963   1.410       .  A
C1962      H1967   1.082       .  S
C1963      C1964   1.410       .  A
C1964      H1968   1.081       .  S
C1969      C1970   1.398       .  A
C1969      C1974   1.394       .  A
C1969      H1975   1.076       .  S
C1970      C1971   1.415       .  A
C1971      C1972   1.413       .  A
C1971      H1976   1.082       .  S
C1972      C1973   1.411       .  A
C1972      H1977   1.082       .  S
C1973      C1974   1.411       .  A
C1974      H1978   1.082       .  S
C1979      C1984   1.411   1_455  A
C1979      H1985   1.082       .  S
C1980      C1981   1.404       .  A
C1981      C1982   1.391       .  A
C1981      H1986   1.084       .  S
C1982      H1987   1.083       .  S
C1983      C1984   1.412       .  A
C1984      H1988   1.082       .  S
C1989      C1990   1.404       .  A
C1989      C1994   1.407       .  A
C1989      H1995   1.083       .  S
C1990      C1991   1.408       .  A
C1991      C1992   1.398       .  A
C1991      H1996   1.084       .  S
C1992      C1993   1.407       .  A
C1992      H1997   1.081       .  S
C1993      C1994   1.415       .  A
C1994      H1998   1.082       .  S
C1999      C2000   1.422       .  A
C1999      C2004   1.424       .  A
C1999      C2621   1.441       .  S
C2000      C2001   1.416       .  A
C2000      C2656   1.507       .  S
C2001      C2002   1.421       .  A
C2001      C2646   1.503       .  S
C2002      C2003   1.419       .  A
C2002      C2624   1.449       .  S
C2003      C2004   1.428       .  A
C2003      C2626   1.508       .  S
C2004      C2636   1.514       .  S
C2005      C2006   1.421       .  A
C2005      C2010   1.414       .  A
C2005      C2659   1.511       .  S
C2006      C2007   1.407       .  A
C2006      C2612   1.500       .  S
C2007      C2008   1.411       .  A
C2007      H2012   1.080       .  S
C2008      C2009   1.435       .  A
C2008      C2602   1.522       .  S
C2009      C2010   1.421       .  A
C2009      C2592   1.507       .  S
C2010      H2011   1.082       .  S
C2013      C2014   1.423       .  A
C2013      C2018   1.411       .  A
C2013      C2585   1.510       .  S
C2014      C2015   1.413       .  A
C2014      C2649   1.502       .  S
C2015      C2016   1.411       .  A
C2015      H2020   1.084       .  S
C2016      C2017   1.437       .  A
C2016      C2562   1.511       .  S
C2017      C2018   1.418       .  A
C2017      C2572   1.516       .  S
C2018      H2019   1.083       .  S
C2021      C2022   1.420       .  A
C2021      C2026   1.422       .  A
C2021      C2530   1.445       .  S
C2022      C2023   1.417       .  A
C2022      C2552   1.506       .  S
C2023      C2024   1.422       .  A
C2023      C2615   1.500       .  S
C2024      C2025   1.417       .  A
C2024      C2527   1.445       .  S
C2025      C2026   1.413       .  A
C2025      C2545   1.503       .  S
C2026      C2532   1.499       .  S
C2027      C2028   1.418       .  A
C2027      C2032   1.418       .  A
C2027      C2493   1.443       .  S
C2028      C2029   1.417       .  A
C2028      C2582   1.507       .  S
C2029      C2030   1.424       .  A
C2029      C2518   1.498       .  S
C2030      C2031   1.420       .  A
C2030      C2496   1.452       .  S
C2031      C2032   1.414       .  A
C2031      C2508   1.500       .  S
C2032      C2498   1.496       .  S
C2033      C2034   1.420       .  A
C2033      C2038   1.413       .  A
C2033      C2555   1.508       .  S
C2034      C2035   1.408       .  A
C2034      C2521   1.500       .  S
C2035      C2036   1.411       .  A
C2035      H2040   1.081       .  S
C2036      C2037   1.432       .  A
C2036      C2484   1.520       .  S
C2037      C2038   1.421       .  A
C2037      C2474   1.505       .  S
C2038      H2039   1.082       .  S
C2041      C2046   1.421       .  A
C2041      C2449   1.442       .  S
C2042      C2043   1.422       .  A
C2042      C2575   1.503       .  S
C2043      C2605   1.509       .  S
C2044      C2045   1.421   1_544  A
C2044      C2451   1.438       .  S
C2045      C2046   1.414       .  A
C2045      C2457   1.504       .  S
C2046      C2467   1.505       .  S
C2047      C2048   1.427       .  A
C2047      C2052   1.420   1_554  A
C2047      C2428   1.432       .  S
C2048      C2049   1.423       .  A
C2048      C2487   1.514       .  S
C2049      C2050   1.427   1_554  A
C2049      C2595   1.515       .  S
C2050      C2051   1.424       .  A
C2050      C2425   1.439       .  S
C2051      C2052   1.412       .  A
C2051      C2440   1.504       .  S
C2052      C2430   1.516       .  S
C2053      C2054   1.427   1_455  A
C2053      C2402   1.429   1_454  S
C2054      C2055   1.426       .  A
C2054      C2565   1.529       .  S
C2055      C2056   1.427   1_655  A
C2055      C2477   1.509       .  S
C2056      C2403   1.439   1_554  S
C2057      C2058   1.412       .  A
C2057      C2406   1.506       .  S
C2058      C2416   1.515       .  S
C2059      C2060   1.418       .  A
C2059      C2064   1.419       .  A
C2059      C2359   1.447       .  S
C2060      C2061   1.413       .  A
C2060      C2385   1.496       .  S
C2061      C2062   1.417       .  A
C2061      C2392   1.499       .  S
C2062      C2063   1.420       .  A
C2062      C2358   1.444       .  S
C2063      C2064   1.417       .  A
C2063      C2372   1.500       .  S
C2064      C2365   1.500       .  S
C2065      C2066   1.429       .  A
C2065      C2070   1.415       .  A
C2065      C2419   1.504       .  S
C2066      C2067   1.414       .  A
C2066      C2443   1.510       .  S
C2067      C2068   1.406       .  A
C2067      H2072   1.083       .  S
C2068      C2069   1.418       .  A
C2068      C2375   1.497       .  S
C2069      C2070   1.411       .  A
C2069      C2351   1.501       .  S
C2070      H2071   1.084       .  S
C2073      C2074   1.427       .  A
C2073      C2078   1.414       .  A
C2073      C2454   1.498       .  S
C2074      C2075   1.413       .  A
C2074      C2409   1.510       .  S
C2075      C2076   1.408       .  A
C2075      H2080   1.084       .  S
C2076      C2077   1.417       .  A
C2076      C2341   1.493       .  S
C2077      C2078   1.408       .  A
C2077      C2362   1.501       .  S
C2078      H2079   1.084       .  S
C2081      C2082   1.416       .  A
C2081      C2086   1.420       .  A
C2081      C2304   1.447       .  S
C2082      C2083   1.413       .  A
C2082      C2308   1.498       .  S
C2083      C2084   1.420       .  A
C2083      C2348   1.501       .  S
C2084      C2085   1.420       .  A
C2084      C2305   1.446       .  S
C2085      C2086   1.418       .  A
C2085      C2328   1.504       .  S
C2086      C2318   1.502       .  S
C2087      C2088   1.417       .  A
C2087      C2092   1.419       .  A
C2087      C2269   1.448       .  S
C2088      C2089   1.415       .  A
C2088      C2338   1.496       .  S
C2089      C2090   1.419       .  A
C2089      C2274   1.501       .  S
C2090      C2091   1.418       .  A
C2090      C2271   1.448       .  S
C2091      C2092   1.416       .  A
C2091      C2284   1.496       .  S
C2092      C2294   1.503       .  S
C2093      C2094   1.432       .  A
C2093      C2098   1.417       .  A
C2093      C2433   1.506       .  S
C2094      C2095   1.416       .  A
C2094      C2464   1.513       .  S
C2095      C2096   1.405       .  A
C2095      H2100   1.083       .  S
C2096      C2097   1.416       .  A
C2096      C2311   1.497       .  S
C2097      C2098   1.409       .  A
C2097      C2277   1.499       .  S
C2098      H2099   1.084       .  S
C2101      C2102   1.424       .  A
C2101      C2535   1.498       .  S
C2102      C2629   1.512       .  S
C2103      C2104   1.414       .  A
C2103      H2108   1.081       .  S
C2104      C2105   1.423       .  A
C2104      C2331   1.506       .  S
C2105      C2106   1.408       .  A
C2105      C2297   1.502       .  S
C2106      H2107   1.084   1_655  S
C2109      C2110   1.437       .  A
C2109      C2114   1.413       .  A
C2109      C2511   1.510       .  S
C2110      C2111   1.419       .  A
C2110      C2639   1.516       .  S
C2111      C2112   1.409       .  A
C2111      H2116   1.084       .  S
C2112      C2113   1.413       .  A
C2112      C2395   1.500       .  S
C2113      C2114   1.402       .  A
C2113      C2287   1.491       .  S
C2114      H2115   1.083       .  S
C2117      C2118   1.425       .  A
C2117      C2122   1.410       .  A
C2117      C2501   1.498       .  S
C2118      C2119   1.409       .  A
C2118      C2542   1.503       .  S
C2119      H2124   1.083       .  S
C2120      C2121   1.420       .  A
C2120      C2382   1.494       .  S
C2121      C2321   1.501       .  S
C2122      H2123   1.084       .  S
O2125     Mg2127   2.131       .  S
O2125     Mg2133   2.147   1_554  S
O2125      C2160   1.234       .  S
C2126      H2165   1.081       .  S
C2126      O2139   1.234       .  S
Mg2127     O2156   2.138   1_554  S
Mg2127     O2171   2.253   1_554  S
Mg2127     O2167   2.226       .  S
Mg2127     O2138   2.303       .  S
O2128     Mg2170   2.133   1_554  S
O2128      C2149   1.232       .  S
O2129     Mg2153   2.296       .  S
C2130      C2404   1.416       .  S
C2130      O2144   1.266   1_455  A
O2131      C2159   1.269       .  A
O2131     Mg2133   2.306       .  S
O2132     Mg2164   2.220       .  S
Mg2133     O2147   2.241       .  S
Mg2133     O2135   2.243       .  S
C2134      C2427   1.409       .  S
C2134      O2172   1.263       .  A
C2134      O2140   1.265       .  A
H2136      C2149   1.081       .  S
C2137      H2162   1.081       .  S
C2137      O2151   1.234       .  S
O2139     Mg2153   2.157   1_556  S
O2140     Mg2170   2.251   1_554  S
C2141      C2450   1.420       .  S
C2141      O2154   1.264       .  A
C2142      C2401   1.406       .  S
C2142      O2169   1.262   1_556  A
Mg2143     O2151   2.167   1_554  S
Mg2143     O2144   2.263   1_554  S
Mg2143     O2145   2.292       .  S
Mg2143     O2172   2.217       .  S
O2145      C2149   1.266       .  A
O2146     Mg2153   2.255   1_556  S
O2147      C2166   1.263       .  A
O2148      C2168   1.265   1_565  A
O2148     Mg2164   2.261   1_554  S
O2150     Mg2164   2.147   1_554  S
O2150      C2161   1.235       .  S
O2151     Mg2170   2.139       .  S
O2152     Mg2164   2.302       .  S
Mg2153     O2169   2.209       .  S
O2154     Mg2170   2.244       .  S
H2155      C2160   1.081       .  S
O2156      C2159   1.234       .  S
H2157      C2159   1.081       .  S
H2158      C2161   1.081       .  S
O2163     Mg2170   2.307       .  S
C2166      C2426   1.419       .  S
C2166      O2171   1.263       .  A
C2168      C2452   1.416       .  S
O2173     Mg2175   2.141       .  S
O2173     Mg2181   2.162       .  S
O2173      C2208   1.234       .  S
C2174      H2213   1.081       .  S
C2174      O2187   1.235       .  S
C2174      O2211   1.268       .  A
Mg2175     O2204   2.157       .  S
Mg2175     O2219   2.290       .  S
Mg2175     O2215   2.242       .  S
Mg2175     O2186   2.293       .  S
O2176     Mg2218   2.156       .  S
O2176     Mg2201   2.127       .  S
O2176      C2197   1.234       .  S
O2177      C2208   1.268       .  A
O2177     Mg2201   2.292       .  S
C2178      C2494   1.421       .  S
C2178      O2180   1.269       .  A
C2178      O2192   1.268       .  A
O2179      C2207   1.268       .  A
O2179     Mg2181   2.296       .  S
O2180     Mg2212   2.246       .  S
Mg2181     O2187   2.128       .  S
Mg2181     O2195   2.233       .  S
Mg2181     O2183   2.305       .  S
C2182      C2528   1.422       .  S
C2182      O2220   1.267       .  A
C2182      O2188   1.268       .  A
O2183      C2190   1.273       .  A
H2184      C2197   1.081       .  S
C2185      H2210   1.081       .  S
C2185      O2199   1.235       .  S
C2185      O2200   1.268       .  A
O2186      C2209   1.268       .  A
O2187     Mg2201   2.155       .  S
O2188     Mg2218   2.276       .  S
C2189      C2622   1.418       .  S
C2189      O2202   1.266       .  A
C2189      O2194   1.268       .  A
C2190      C2495   1.428       .  S
C2190      O2217   1.266       .  A
Mg2191     O2198   2.131       .  S
Mg2191     O2199   2.157       .  S
Mg2191     O2192   2.273       .  S
Mg2191     O2193   2.288       .  S
Mg2191     O2220   2.237       .  S
O2193      C2197   1.267       .  A
O2194     Mg2201   2.274       .  S
O2195      C2214   1.268       .  A
O2196      C2216   1.272       .  A
O2196     Mg2212   2.296       .  S
O2198     Mg2212   2.152       .  S
O2198      C2209   1.234       .  S
O2199     Mg2218   2.126       .  S
O2200     Mg2212   2.292       .  S
Mg2201     O2217   2.232       .  S
O2202     Mg2218   2.224       .  S
H2203      C2208   1.081       .  S
O2204     Mg2212   2.137       .  S
O2204      C2207   1.234       .  S
H2205      C2207   1.081       .  S
H2206      C2209   1.081       .  S
O2211     Mg2218   2.293       .  S
C2214      C2529   1.423       .  S
C2214      O2219   1.271       .  A
O2215      C2216   1.269       .  A
C2216      C2623   1.426       .  S
O2221     Mg2223   2.139       .  S
O2221     Mg2229   2.157       .  S
O2221      C2256   1.235       .  S
C2222      H2261   1.081       .  S
C2222      O2235   1.235       .  S
C2222      O2259   1.270       .  A
Mg2223     O2252   2.158       .  S
Mg2223     O2267   2.273       .  S
Mg2223     O2263   2.257       .  S
Mg2223     O2234   2.292       .  S
O2224     Mg2266   2.152       .  S
O2224     Mg2249   2.137       .  S
O2224      C2245   1.234       .  S
O2225      C2256   1.269       .  A
O2225     Mg2249   2.299       .  S
C2226      C2360   1.425       .  S
C2226      O2228   1.267       .  A
C2226      O2240   1.270       .  A
O2227      C2255   1.268       .  A
O2227     Mg2229   2.295       .  S
O2228     Mg2260   2.252       .  S
Mg2229     O2235   2.142       .  S
Mg2229     O2243   2.253       .  S
Mg2229     O2231   2.272       .  S
C2230      C2303   1.424       .  S
C2230      O2268   1.267       .  A
C2230      O2236   1.270       .  A
O2231      C2238   1.269       .  A
H2232      C2245   1.081       .  S
C2233      H2258   1.081       .  S
C2233      O2247   1.235       .  S
C2233      O2248   1.268       .  A
O2234      C2257   1.268       .  A
O2235     Mg2249   2.157       .  S
O2236     Mg2266   2.279       .  S
C2237      C2272   1.426       .  S
C2237      O2250   1.268       .  A
C2237      O2242   1.269       .  A
C2238      C2357   1.424       .  S
C2238      O2265   1.267       .  A
Mg2239     O2246   2.130       .  S
Mg2239     O2247   2.162       .  S
Mg2239     O2240   2.275       .  S
Mg2239     O2241   2.299       .  S
Mg2239     O2268   2.245       .  S
O2241      C2245   1.269       .  A
O2242     Mg2249   2.278       .  S
O2243      C2262   1.268       .  A
O2244      C2264   1.269       .  A
O2244     Mg2260   2.271       .  S
O2246     Mg2260   2.160       .  S
O2246      C2257   1.234       .  S
O2247     Mg2266   2.136       .  S
O2248     Mg2260   2.295       .  S
Mg2249     O2265   2.250       .  S
O2250     Mg2266   2.256       .  S
H2251      C2256   1.081       .  S
O2252     Mg2260   2.131       .  S
O2252      C2255   1.234       .  S
H2253      C2255   1.081       .  S
H2254      C2257   1.081       .  S
O2259     Mg2266   2.303       .  S
C2262      C2306   1.424       .  S
C2262      O2267   1.269       .  A
O2263      C2264   1.268       .  A
C2264      C2270   1.425       .  S
C2271      C2272   1.202       .  T
C2273      C2274   1.403       .  A
C2273      C2278   1.391       .  A
C2273      H2279   1.084       .  S
C2274      C2275   1.409       .  A
C2275      C2276   1.411       .  A
C2275      H2280   1.083       .  S
C2276      C2277   1.411       .  A
C2276      H2281   1.082       .  S
C2277      C2278   1.405       .  A
C2278      H2282   1.083       .  S
C2283      C2284   1.400       .  A
C2283      C2288   1.398       .  A
C2283      H2289   1.083       .  S
C2284      C2285   1.411       .  A
C2285      C2286   1.401       .  A
C2285      H2290   1.083       .  S
C2286      C2287   1.402       .  A
C2286      H2291   1.083       .  S
C2287      C2288   1.411       .  A
C2288      H2292   1.083       .  S
C2293      C2294   1.404       .  A
C2293      C2298   1.390       .  A
C2294      C2295   1.409       .  A
C2295      C2296   1.411       .  A
C2295      H2300   1.082       .  S
C2296      C2297   1.411       .  A
C2296      H2301   1.082       .  S
C2297      C2298   1.406       .  A
C2307      C2308   1.411       .  A
C2307      H2313   1.083       .  S
C2309      C2310   1.401       .  A
C2309      H2314   1.083       .  S
C2310      C2311   1.413   1_545  A
C2310      H2315   1.083       .  S
C2311      C2312   1.403       .  A
C2312      H2316   1.082       .  S
C2317      C2318   1.404       .  A
C2317      C2322   1.390       .  A
C2318      C2319   1.409       .  A
C2319      C2320   1.410       .  A
C2319      H2324   1.082       .  S
C2320      C2321   1.411       .  A
C2320      H2325   1.082       .  S
C2321      C2322   1.405       .  A
C2327      C2328   1.409       .  A
C2327      C2332   1.399       .  A
C2327      H2333   1.084       .  S
C2328      C2329   1.402       .  A
C2329      C2330   1.403       .  A
C2329      H2334   1.083       .  S
C2330      C2331   1.414       .  A
C2331      C2332   1.406       .  A
C2332      H2336   1.081       .  S
C2337      C2338   1.411   1_455  A
C2337      H2343   1.083       .  S
C2338      C2339   1.400       .  A
C2339      H2344   1.083       .  S
C2340      C2341   1.411       .  A
C2340      H2345   1.083       .  S
C2341      C2342   1.403       .  A
C2342      H2346   1.083       .  S
C2347      C2348   1.408       .  A
C2347      C2352   1.411   1_655  A
C2347      H2353   1.083       .  S
C2349      C2350   1.392       .  A
C2349      H2354   1.084       .  S
C2350      C2351   1.406       .  A
C2350      H2355   1.083       .  S
C2352      H2356   1.082       .  S
C2357      C2358   1.200       .  T
C2361      C2362   1.411       .  A
C2361      H2367   1.082       .  S
C2362      C2363   1.406       .  A
C2363      H2368   1.083       .  S
C2364      C2365   1.403       .  A
C2364      H2369   1.084       .  S
C2365      C2366   1.409       .  A
C2366      H2370   1.083       .  S
C2371      C2372   1.411       .  A
C2371      C2376   1.401       .  A
C2371      H2377   1.083       .  S
C2372      C2373   1.401       .  A
C2373      C2374   1.399       .  A
C2373      H2378   1.083       .  S
C2374      C2375   1.412       .  A
C2374      H2379   1.083       .  S
C2375      C2376   1.403       .  A
C2376      H2380   1.082       .  S
C2381      C2382   1.404       .  A
C2381      C2386   1.396       .  A
C2381      H2387   1.082       .  S
C2382      C2383   1.411       .  A
C2383      C2384   1.398       .  A
C2384      C2385   1.401       .  A
C2384      H2389   1.082       .  S
C2385      C2386   1.408       .  A
C2386      H2390   1.083       .  S
C2391      C2392   1.401       .  A
C2391      C2396   1.392       .  A
C2391      H2397   1.084       .  S
C2392      C2393   1.409       .  A
C2393      C2394   1.411       .  A
C2393      H2398   1.083       .  S
C2394      C2395   1.411       .  A
C2394      H2399   1.082       .  S
C2395      C2396   1.407       .  A
C2396      H2400   1.083       .  S
C2401      C2402   1.191       .  T
C2403      C2404   1.197       .  T
C2405      C2406   1.408       .  A
C2405      C2410   1.414       .  A
C2405      H2411   1.083       .  S
C2406      C2407   1.401       .  A
C2407      C2408   1.390       .  A
C2407      H2412   1.084       .  S
C2408      C2409   1.409       .  A
C2408      H2413   1.082       .  S
C2409      C2410   1.414       .  A
C2410      H2414   1.082       .  S
C2415      C2416   1.405       .  A
C2415      C2420   1.400       .  A
C2416      C2417   1.414       .  A
C2417      C2418   1.406       .  A
C2417      H2422   1.083       .  S
C2418      C2419   1.406       .  A
C2418      H2423   1.082       .  S
C2419      C2420   1.411       .  A
C2420      H2424   1.083       .  S
C2425      C2426   1.198       .  T
C2427      C2428   1.193       .  T
C2429      C2430   1.404       .  A
C2429      C2434   1.397       .  A
C2429      H2435   1.082       .  S
C2430      C2431   1.414       .  A
C2431      C2432   1.409       .  A
C2431      H2436   1.083       .  S
C2432      C2433   1.407       .  A
C2432      H2437   1.082       .  S
C2433      C2434   1.411       .  A
C2434      H2438   1.083       .  S
C2439      C2440   1.400       .  A
C2439      C2444   1.389       .  A
C2439      H2445   1.084       .  S
C2440      C2441   1.408       .  A
C2441      C2442   1.412       .  A
C2441      H2446   1.083       .  S
C2442      C2443   1.413       .  A
C2442      H2447   1.081       .  S
C2443      C2444   1.411       .  A
C2444      H2448   1.082       .  S
C2449      C2450   1.199       .  T
C2451      C2452   1.196       .  T
C2453      C2454   1.406       .  A
C2453      C2458   1.404       .  A
C2453      H2459   1.082       .  S
C2454      C2455   1.409       .  A
C2455      C2456   1.395       .  A
C2455      H2460   1.083       .  S
C2456      C2457   1.402       .  A
C2457      C2458   1.411       .  A
C2458      H2462   1.083       .  S
C2463      C2464   1.414       .  A
C2463      C2468   1.415       .  A
C2463      H2469   1.081       .  S
C2464      C2465   1.412       .  A
C2465      C2466   1.388       .  A
C2465      H2470   1.082       .  S
C2466      C2467   1.399       .  A
C2467      C2468   1.409       .  A
C2468      H2472   1.083       .  S
C2473      C2474   1.415       .  A
C2473      C2478   1.400       .  A
C2473      H2479   1.083       .  S
C2474      C2475   1.405       .  A
C2475      C2476   1.404       .  A
C2475      H2480   1.082       .  S
C2476      C2477   1.413       .  A
C2476      H2481   1.083       .  S
C2477      C2478   1.402       .  A
C2483      C2484   1.412       .  A
C2483      C2488   1.390       .  A
C2483      H2489   1.082       .  S
C2484      C2485   1.415       .  A
C2485      C2486   1.420       .  A
C2485      H2490   1.082       .  S
C2486      C2487   1.412       .  A
C2486      H2491   1.082       .  S
C2487      C2488   1.401       .  A
C2488      H2492   1.084       .  S
C2495      C2496   1.204       .  T
C2497      C2498   1.407       .  A
C2497      C2502   1.404       .  A
C2497      H2503   1.077       .  S
C2498      C2499   1.401       .  A
C2499      C2500   1.391       .  A
C2500      C2501   1.409       .  A
C2501      C2502   1.407       .  A
C2502      H2506   1.082       .  S
C2507      C2508   1.399       .  A
C2507      C2512   1.393       .  A
C2507      H2513   1.084       .  S
C2508      C2509   1.407       .  A
C2509      C2510   1.405       .  A
C2509      H2514   1.078       .  S
C2510      C2511   1.406       .  A
C2510      H2515   1.080       .  S
C2511      C2512   1.416       .  A
C2512      H2516   1.082       .  S
C2517      C2518   1.409       .  A
C2517      C2522   1.411       .  A
C2517      H2523   1.082       .  S
C2518      C2519   1.402       .  A
C2519      C2520   1.386       .  A
C2519      H2524   1.084       .  S
C2520      C2521   1.406       .  A
C2520      H2525   1.083       .  S
C2521      C2522   1.412       .  A
C2522      H2526   1.082       .  S
C2531      C2532   1.402       .  A
C2531      C2536   1.388       .  A
C2531      H2537   1.084       .  S
C2532      C2533   1.409       .  A
C2533      C2534   1.411       .  A
C2533      H2538   1.083       .  S
C2534      C2535   1.411       .  A
C2534      H2539   1.082       .  S
C2535      C2536   1.405       .  A
C2536      H2540   1.083       .  S
C2541      C2542   1.414       .  A
C2541      C2546   1.403       .  A
C2541      H2547   1.083       .  S
C2542      C2543   1.404       .  A
C2543      C2544   1.399       .  A
C2543      H2548   1.082       .  S
C2544      C2545   1.410       .  A
C2544      H2549   1.083       .  S
C2545      C2546   1.402       .  A
C2546      H2550   1.083       .  S
C2551      C2556   1.400       .  A
C2551      H2557   1.083       .  S
C2552      C2553   1.404       .  A
C2553      C2554   1.405       .  A
C2553      H2558   1.083       .  S
C2554      H2559   1.083       .  S
C2555      C2556   1.407       .  A
C2556      H2560   1.082       .  S
C2561      C2562   1.406       .  A
C2561      C2566   1.399       .  A
C2561      H2567   1.084       .  S
C2562      C2563   1.412       .  A
C2563      C2564   1.413       .  A
C2563      H2568   1.080       .  S
C2564      C2565   1.411       .  A
C2564      H2569   1.081       .  S
C2565      C2566   1.412       .  A
C2571      C2572   1.405       .  A
C2571      C2576   1.400       .  A
C2571      H2577   1.060       .  S
C2572      C2573   1.416       .  A
C2573      C2574   1.402       .  A
C2573      H2578   1.083       .  S
C2574      C2575   1.405       .  A
C2575      C2576   1.400       .  A
C2576      H2580   1.075       .  S
C2581      C2586   1.401       .  A
C2581      H2587   1.084       .  S
C2582      C2583   1.402       .  A
C2583      C2584   1.405       .  A
C2583      H2588   1.083       .  S
C2584      H2589   1.083       .  S
C2585      C2586   1.405       .  A
C2586      H2590   1.082       .  S
C2591      C2592   1.412       .  A
C2591      C2596   1.400       .  A
C2591      H2597   1.083       .  S
C2592      C2593   1.406       .  A
C2593      C2594   1.407       .  A
C2593      H2598   1.083       .  S
C2594      C2595   1.415       .  A
C2594      H2599   1.082       .  S
C2595      C2596   1.404       .  A
C2596      H2600   1.081       .  S
C2601      C2602   1.417       .  A
C2601      C2606   1.396       .  A
C2601      H2607   1.081       .  S
C2602      C2603   1.410       .  A
C2603      C2604   1.410       .  A
C2603      H2608   1.080       .  S
C2604      C2605   1.411       .  A
C2604      H2609   1.078       .  S
C2605      C2606   1.401       .  A
C2606      H2610   1.084       .  S
C2611      C2612   1.411       .  A
C2611      H2617   1.082       .  S
C2612      C2613   1.405       .  A
C2613      H2618   1.083       .  S
C2614      C2615   1.402       .  A
C2614      H2619   1.084       .  S
C2615      C2616   1.409       .  A
C2616      H2620   1.082       .  S
C2621      C2622   1.198       .  T
C2625      C2626   1.412       .  A
C2625      C2630   1.407       .  A
C2625      H2631   1.083       .  S
C2626      C2627   1.402       .  A
C2627      C2628   1.396       .  A
C2627      H2632   1.074       .  S
C2628      C2629   1.410       .  A
C2628      H2633   1.082       .  S
C2629      C2630   1.410       .  A
C2630      H2634   1.081       .  S
C2635      C2636   1.398       .  A
C2635      C2640   1.394       .  A
C2635      H2641   1.076       .  S
C2636      C2637   1.415       .  A
C2637      C2638   1.413       .  A
C2637      H2642   1.082       .  S
C2638      C2639   1.411       .  A
C2638      H2643   1.082       .  S
C2639      C2640   1.411       .  A
C2640      H2644   1.082       .  S
C2645      C2650   1.411   1_455  A
C2645      H2651   1.082       .  S
C2646      C2647   1.404       .  A
C2647      C2648   1.391       .  A
C2647      H2652   1.084       .  S
C2648      H2653   1.083       .  S
C2649      C2650   1.412       .  A
C2650      H2654   1.082       .  S
C2655      C2656   1.404       .  A
C2655      C2660   1.407       .  A
C2655      H2661   1.083       .  S
C2656      C2657   1.408       .  A
C2657      C2658   1.398       .  A
C2657      H2662   1.084       .  S
C2658      C2659   1.407       .  A
C2658      H2663   1.081       .  S
C2659      C2660   1.415       .  A
C2660      H2664   1.082       .  S
