geometry optimzed in LAMMPS
_audit_creation_date              2020-11-30 
_audit_creation_method            'lammps2cif' 
_symmetry_space_group_name_H-M    'P1' 
_symmetry_Int_Tables_number       1 
_symmetry_cell_setting            triclinic 
loop_ 
_symmetry_equiv_pos_as_xyz 
  x,y,z 
_cell_length_a                    85.99515213 
_cell_length_b                    85.93229663430682 
_cell_length_c                    85.88724814514697 
_cell_angle_alpha                 89.84855071246275 
_cell_angle_beta                  89.96662865017056 
_cell_angle_gamma                 90.18541249190771 
loop_ 
_atom_site_label 
_atom_site_type_symbol 
_atom_site_fract_x 
_atom_site_fract_y 
_atom_site_fract_z 
_atom_site_charge 
N1          N  0.75928967  0.87654746  0.39456925    -0.27600
N2          N  0.76653264  0.88169238  0.40714927    -0.35500
C3          C  0.77426815  0.86995928  0.41383697     0.00700
C4          C  0.77188015  0.85672007  0.40517826     0.06800
C5          C  0.76227131  0.86119639  0.39300988    -0.06300
H6          H  0.78079079  0.87088930  0.42456569     0.07400
H7          H  0.75758126  0.85383881  0.38394279     0.08600
Cu8        Cu  0.76498817  0.90376098  0.41638591     0.44200
Cu9        Cu  0.74512791  0.89085985  0.38095000     0.42000
Cu10       Cu  0.73234098  0.92423880  0.40429733     0.43900
N11         N  0.75923167  0.92483399  0.42620523    -0.35000
N12         N  0.74631028  0.93209186  0.42229464    -0.29200
C13         C  0.74503785  0.94510978  0.43083798    -0.05300
C14         C  0.75788490  0.94610541  0.44050953     0.06900
C15         C  0.76666626  0.93305557  0.43726566     0.00700
H16         H  0.73557272  0.95333101  0.42994621     0.08300
H17         H  0.77741966  0.92958147  0.44279687     0.07400
N18         N  0.72561491  0.91996608  0.38158027    -0.36400
N19         N  0.73113572  0.90884378  0.37250188    -0.28600
C20         C  0.72754357  0.91229822  0.35757539    -0.03800
C21         C  0.71938617  0.92621031  0.35740502     0.04800
C22         C  0.71821618  0.93050839  0.37281796     0.02900
H23         H  0.73158038  0.90584183  0.34756832     0.08000
H24         H  0.71374046  0.94142015  0.37719379     0.06800
N25         N  0.75576925  0.87252063  0.54282369    -0.27600
N26         N  0.76670031  0.88011886  0.53501826    -0.35500
C27         C  0.77431435  0.87015056  0.52578850     0.00700
C28         C  0.76774511  0.85556132  0.52740734     0.06800
C29         C  0.75605564  0.85742127  0.53843296    -0.06300
H30         H  0.78292208  0.87360346  0.51724776     0.07400
H31         H  0.74766201  0.84874005  0.54207318     0.08600
Cu32       Cu  0.76762492  0.90399086  0.53201764     0.44200
Cu33       Cu  0.73966617  0.88397853  0.55712975     0.42000
Cu34       Cu  0.73000508  0.91924557  0.53743282     0.43900
N35         N  0.76035621  0.92445302  0.52159576    -0.35000
N36         N  0.74586721  0.92932520  0.52282760    -0.29200
C37         C  0.74388372  0.94202617  0.51398272    -0.05300
C38         C  0.75781323  0.94529226  0.50674694     0.06900
C39         C  0.76806039  0.93393866  0.51176543     0.00700
H40         H  0.73308540  0.94838001  0.51291739     0.08300
H41         H  0.78002219  0.93240497  0.50818650     0.07400
N42         N  0.72178333  0.91383395  0.55908613    -0.36400
N43         N  0.72575623  0.90131417  0.56710060    -0.28600
C44         C  0.72085407  0.90313069  0.58193370    -0.03800
C45         C  0.71359228  0.91750200  0.58304178     0.04800
C46         C  0.71439823  0.92388373  0.56837573     0.02900
H47         H  0.72312193  0.89505247  0.59133382     0.08000
H48         H  0.71083312  0.93546193  0.56494721     0.06800
N49         N  0.78340454  0.08383468  0.40286590    -0.27600
N50         N  0.79110868  0.07629421  0.41391763    -0.35500
C51         C  0.79810342  0.08659510  0.42327845     0.00700
C52         C  0.79471855  0.10134222  0.41808447     0.06800
C53         C  0.78535091  0.09927194  0.40511582    -0.06300
H54         H  0.80441258  0.08356618  0.43375018     0.07400
H55         H  0.77984989  0.10827484  0.39825028     0.08600
Cu56       Cu  0.79004399  0.05284630  0.41916258     0.44200
Cu57       Cu  0.76931257  0.07304150  0.38606292     0.42000
Cu58       Cu  0.76040026  0.03461106  0.39913025     0.43900
N59         N  0.78112181  0.03177712  0.42656553    -0.35000
N60         N  0.76912256  0.02561055  0.41927107    -0.29200
C61         C  0.76374044  0.01340497  0.42736338    -0.05300
C62         C  0.77297601  0.01165525  0.44031213     0.06900
C63         C  0.78397707  0.02342231  0.43952872     0.00700
H64         H  0.75372830  0.00647304  0.42414888     0.08300
H65         H  0.79271165  0.02625866  0.44815253     0.07400
N66         N  0.75255770  0.04340704  0.37852497    -0.36400
N67         N  0.75543312  0.05757563  0.37322961    -0.28600
C68         C  0.74781290  0.05937504  0.35957037    -0.03800
C69         C  0.73998059  0.04556440  0.35638500     0.04800
C70         C  0.74326374  0.03581482  0.36862835     0.02900
H71         H  0.74769086  0.06994327  0.35270898     0.08000
H72         H  0.73887543  0.02413192  0.37043741     0.06800
N73         N  0.76025589  0.08609528  0.54548769    -0.27600
N74         N  0.76507709  0.08171351  0.53152321    -0.35500
C75         C  0.77056510  0.09411694  0.52372950     0.00700
C76         C  0.76927316  0.10704944  0.53307016     0.06800
C77         C  0.76279028  0.10158510  0.54689055    -0.06300
H78         H  0.77611265  0.09357676  0.51243221     0.07400
H79         H  0.76083285  0.10820228  0.55740375     0.08600
Cu80       Cu  0.76671651  0.05899802  0.52375315     0.44200
Cu81       Cu  0.75175509  0.07011525  0.56220246     0.42000
Cu82       Cu  0.76393379  0.03045277  0.55293861     0.43900
N83         N  0.76980714  0.03559460  0.51905443    -0.35000
N84         N  0.76944762  0.02493983  0.53015151    -0.29200
C85         C  0.77044720  0.01074277  0.52365232    -0.05300
C86         C  0.77164549  0.01260529  0.50770330     0.06900
C87         C  0.77100816  0.02849182  0.50516914     0.00700
H88         H  0.76911224  0.99988801  0.52993427     0.08300
H89         H  0.77051106  0.03438510  0.49402707     0.07400
N90         N  0.75081286  0.03625098  0.57227162    -0.36400
N91         N  0.74539807  0.05030515  0.57541044    -0.28600
C92         C  0.73483343  0.04897832  0.58703813    -0.03800
C93         C  0.73364220  0.03337346  0.59130525     0.04800
C94         C  0.74405083  0.02578406  0.58175484     0.02900
H95         H  0.72789874  0.05848143  0.59144813     0.08000
H96         H  0.74571170  0.01333821  0.58093999     0.06800
O97         O  0.74939906  0.96586660  0.45754501    -0.73200
O98         O  0.75607175  0.99819125  0.49026171    -0.74200
O99         O  0.75661984  0.99769270  0.45735065    -0.62800
O100        O  0.74928918  0.96580065  0.49044658    -0.71300
O101        O  0.77445678  0.96000266  0.49042535    -0.70800
O102        O  0.78200668  0.99296687  0.45839268    -0.62100
O103        O  0.78122813  0.99245504  0.49136842    -0.74600
O104        O  0.77462259  0.96038374  0.45754756    -0.73400
Cu105      Cu  0.75197907  0.98208932  0.47393069     1.04600
Cu106      Cu  0.77899532  0.97627509  0.47444707     1.04300
C107        C  0.76084930  0.95802889  0.45238027     0.93000
C108        C  0.76959435  0.00047464  0.49593103     0.92100
C109        C  0.77047651  0.00033516  0.45269677     0.84200
C110        C  0.76067829  0.95765699  0.49540127     0.90500
N111        N  0.89548682  0.75550322  0.38805297    -0.27600
N112        N  0.90213334  0.76523751  0.39798940    -0.35500
C113        C  0.89125262  0.77102024  0.40750875     0.00700
C114        C  0.87710812  0.76425276  0.40399566     0.06800
C115        C  0.88015478  0.75461269  0.39141441    -0.06300
H116        H  0.89381006  0.77811397  0.41758899     0.07400
H117        H  0.87215146  0.74649301  0.38607263     0.08600
Cu118      Cu  0.92545408  0.76559726  0.40400703     0.44200
Cu119      Cu  0.90796996  0.74158764  0.37242326     0.42000
Cu120      Cu  0.94156802  0.72983291  0.39290722     0.43900
N121        N  0.94385803  0.75567194  0.41598521    -0.35000
N122        N  0.94884942  0.74166477  0.41224944    -0.29200
C123        C  0.95962487  0.73708110  0.42249615    -0.05300
C124        C  0.96159485  0.74877128  0.43327783     0.06900
C125        C  0.95144480  0.76047561  0.42885405     0.00700
H126        H  0.96573478  0.72610684  0.42198250     0.08300
H127        H  0.94946602  0.77142812  0.43471190     0.07400
N128        N  0.93722373  0.72307211  0.37047632    -0.36400
N129        N  0.92506933  0.72759585  0.36224948    -0.28600
C130        C  0.92673476  0.72227751  0.34754140    -0.03800
C131        C  0.94065805  0.71414088  0.34672979     0.04800
C132        C  0.94690980  0.71491085  0.36145267     0.02900
H133        H  0.91869827  0.72448852  0.33811395     0.08000
H134        H  0.95798335  0.71029031  0.36522289     0.06800
N135        N  0.88677661  0.73767848  0.54003605    -0.27600
N136        N  0.89340252  0.74609773  0.52894024    -0.35500
C137        C  0.88244882  0.75406161  0.52124663     0.00700
C138        C  0.86820770  0.75050865  0.52770100     0.06800
C139        C  0.87126635  0.74004231  0.53960032    -0.06300
H140        H  0.88461120  0.76134630  0.51117642     0.07400
H141        H  0.86287469  0.73428119  0.54704345     0.08600
Cu142      Cu  0.91649699  0.74476222  0.52257028     0.44200
Cu143      Cu  0.89962296  0.72293658  0.55433610     0.42000
Cu144      Cu  0.93650634  0.71155810  0.53610668     0.43900
N145        N  0.93757102  0.73780034  0.51350652    -0.35000
N146        N  0.94438531  0.72465044  0.51755301    -0.29200
C147        C  0.95745059  0.72289458  0.50911940    -0.05300
C148        C  0.95894165  0.73572789  0.49949781     0.06900
C149        C  0.94618433  0.74493947  0.50257579     0.00700
H150        H  0.96556796  0.71338633  0.51040789     0.08300
H151        H  0.94330939  0.75596871  0.49719379     0.07400
N152        N  0.93014532  0.70610669  0.55864932    -0.36400
N153        N  0.91705469  0.71038127  0.56551940    -0.28600
C154        C  0.91770100  0.70625915  0.58065834    -0.03800
C155        C  0.93188109  0.69917948  0.58330126     0.04800
C156        C  0.93943830  0.69926987  0.56916046     0.02900
H157        H  0.90873742  0.70862102  0.58916357     0.08000
H158        H  0.95105813  0.69510281  0.56678130     0.06800
N159        N  0.10016935  0.74758388  0.40663629    -0.27600
N160        N  0.09415321  0.75745805  0.41682367    -0.35500
C161        C  0.10516533  0.76205289  0.42679905     0.00700
C162        C  0.11888242  0.75494268  0.42288282     0.06800
C163        C  0.11545428  0.74584558  0.40997696    -0.06300
H164        H  0.10323269  0.76987471  0.43646499     0.07400
H165        H  0.12336188  0.73837580  0.40369265     0.08600
Cu166      Cu  0.07129300  0.76399151  0.41923565     0.44200
Cu167      Cu  0.08693410  0.73650206  0.38917689     0.42000
Cu168      Cu  0.04667761  0.74872156  0.39237620     0.43900
N169        N  0.04783981  0.76308441  0.42359019    -0.35000
N170        N  0.03855544  0.75637820  0.41341357    -0.29200
C171        C  0.02497346  0.75294333  0.42029842    -0.05300
C172        C  0.02568127  0.75808350  0.43548279     0.06900
C173        C  0.04031304  0.76452644  0.43724207     0.00700
H174        H  0.01578614  0.74611380  0.41503494     0.08300
H175        H  0.04567912  0.76819086  0.44802549     0.07400
N176        N  0.05490263  0.73479316  0.37496836    -0.36400
N177        N  0.06906677  0.72890079  0.37417979    -0.28600
C178        C  0.06893879  0.71739776  0.36344438    -0.03800
C179        C  0.05395809  0.71620080  0.35737194     0.04800
C180        C  0.04558694  0.72759922  0.36479900     0.02900
H181        H  0.07871930  0.70996031  0.36085583     0.08000
H182        H  0.03322312  0.72970246  0.36379356     0.06800
N183        N  0.09631945  0.73243094  0.54621066    -0.27600
N184        N  0.09317340  0.73444143  0.53124923    -0.35500
C185        C  0.10600529  0.73952429  0.52389334     0.00700
C186        C  0.11785562  0.74090660  0.53462177     0.06800
C187        C  0.11131666  0.73638563  0.54870125    -0.06300
H188        H  0.10626344  0.74347320  0.51191810     0.07400
H189        H  0.11667167  0.73717668  0.56006556     0.08600
Cu190      Cu  0.07111324  0.73428824  0.52159769     0.44200
Cu191      Cu  0.07939847  0.72687505  0.56295084     0.42000
Cu192      Cu  0.04077414  0.73664223  0.54976113     0.43900
N193        N  0.04817907  0.73840165  0.51558701    -0.35000
N194        N  0.03708361  0.74005607  0.52610909    -0.29200
C195        C  0.02357118  0.74301605  0.51880882    -0.05300
C196        C  0.02634417  0.74320422  0.50296884     0.06900
C197        C  0.04201099  0.74010070  0.50128979     0.00700
H198        H  0.01245243  0.74430262  0.52457404     0.08300
H199        H  0.04843176  0.73908290  0.49049670     0.07400
N200        N  0.04554294  0.72824079  0.57193851    -0.36400
N201        N  0.05941632  0.72356341  0.57660593    -0.28600
C202        C  0.05772838  0.71547929  0.59003152    -0.03800
C203        C  0.04204797  0.71515912  0.59398491     0.04800
C204        C  0.03479766  0.72357927  0.58231687     0.02900
H205        H  0.06698810  0.70918364  0.59575092     0.08000
H206        H  0.02239178  0.72468137  0.58057584     0.06800
O207        O  0.97608975  0.76066856  0.45376962    -0.73200
O208        O  0.00745427  0.75731280  0.48855644    -0.74200
O209        O  0.00880119  0.76473589  0.45615936    -0.62800
O210        O  0.97471325  0.75362849  0.48585395    -0.71300
O211        O  0.97916016  0.72845682  0.48209909    -0.70800
O212        O  0.01091665  0.73978253  0.44974343    -0.62100
O213        O  0.01195347  0.73272371  0.48204677    -0.74600
O214        O  0.97878597  0.73528914  0.44974776    -0.73400
Cu215      Cu  0.99168180  0.75998452  0.47132411     1.04600
Cu216      Cu  0.99533660  0.73317790  0.46577097     1.04300
C217        C  0.97255570  0.74830561  0.44630587     0.93000
C218        C  0.01474658  0.74452272  0.49058338     0.92100
C219        C  0.01472680  0.75403011  0.44780691     0.84200
C220        C  0.97158767  0.73938190  0.48869648     0.90500
N221        N  0.22487078  0.88594499  0.41523990    -0.27600
N222        N  0.21813760  0.89189677  0.42775894    -0.35500
C223        C  0.21082075  0.88054119  0.43566032     0.00700
C224        C  0.21300477  0.86666932  0.42795995     0.06800
C225        C  0.22197188  0.87045916  0.41501874    -0.06300
H226        H  0.20492878  0.88214330  0.44667304     0.07400
H227        H  0.22637309  0.86250787  0.40633904     0.08600
Cu228      Cu  0.22125762  0.91420986  0.43620639     0.44200
Cu229      Cu  0.23881098  0.89913741  0.39980444     0.42000
Cu230      Cu  0.25616692  0.92994934  0.42129341     0.43900
N231        N  0.23273669  0.93249664  0.44679191    -0.35000
N232        N  0.24644322  0.93729393  0.44174465    -0.29200
C233        C  0.25200282  0.94824447  0.45132647    -0.05300
C234        C  0.24120900  0.95055070  0.46292823     0.06900
C235        C  0.22906406  0.94044163  0.45975714     0.00700
H236        H  0.26291418  0.95435391  0.44971091     0.08300
H237        H  0.21855879  0.93875264  0.46650930     0.07400
N238        N  0.26054141  0.92653812  0.39810810    -0.36400
N239        N  0.25382316  0.91570113  0.38951468    -0.28600
C240        C  0.25786814  0.91820344  0.37447288    -0.03800
C241        C  0.26750867  0.93125680  0.37382534     0.04800
C242        C  0.26892082  0.93610140  0.38903065     0.02900
H243        H  0.25370856  0.91142341  0.36472336     0.08000
H244        H  0.27504098  0.94632193  0.39313751     0.06800
N245        N  0.23323510  0.87366567  0.56479232    -0.27600
N246        N  0.22412270  0.88318486  0.55688144    -0.35500
C247        C  0.21433081  0.87481274  0.54807627     0.00700
C248        C  0.21772819  0.85919025  0.54988953     0.06800
C249        C  0.22969883  0.85886650  0.56078417    -0.06300
H250        H  0.20662080  0.87981204  0.53947052     0.07400
H251        H  0.23629566  0.84877487  0.56436128     0.08600
Cu252      Cu  0.22929329  0.90642490  0.55292358     0.44200
Cu253      Cu  0.25177078  0.88228104  0.57805125     0.42000
Cu254      Cu  0.27059048  0.91063208  0.55357986     0.43900
N255        N  0.24080761  0.92495232  0.54248774    -0.35000
N256        N  0.25614512  0.92570543  0.54175704    -0.29200
C257        C  0.26032393  0.93835447  0.53354848    -0.05300
C258        C  0.24697161  0.94589815  0.52878775     0.06900
C259        C  0.23478303  0.93708527  0.53461563     0.00700
H260        H  0.27222078  0.94177219  0.53118517     0.08300
H261        H  0.22248240  0.93904694  0.53284919     0.07400
N262        N  0.27795816  0.90543073  0.57576019    -0.36400
N263        N  0.26981648  0.89683764  0.58562194    -0.28600
C264        C  0.27378633  0.90096560  0.60025249    -0.03800
C265        C  0.28501826  0.91264031  0.59944797     0.04800
C266        C  0.28759143  0.91478310  0.58371104     0.02900
H267        H  0.26800326  0.89676392  0.61063776     0.08000
H268        H  0.29462109  0.92379495  0.57838904     0.06800
N269        N  0.23240993  0.08551674  0.42217593    -0.27600
N270        N  0.22445844  0.07759301  0.43274826    -0.35500
C271        C  0.21545410  0.08740622  0.44080733     0.00700
C272        C  0.21775000  0.10227280  0.43512189     0.06800
C273        C  0.22857208  0.10068789  0.42325034    -0.06300
H274        H  0.20838218  0.08408557  0.45070321     0.07400
H275        H  0.23366608  0.10990151  0.41629954     0.08600
Cu276      Cu  0.22803837  0.05451835  0.43838529     0.44200
Cu277      Cu  0.24902924  0.07517720  0.40796247     0.42000
Cu278      Cu  0.26427769  0.03973221  0.42524812     0.43900
N279        N  0.23839783  0.03528478  0.44829750    -0.35000
N280        N  0.25246308  0.03065450  0.44425724    -0.29200
C281        C  0.25689831  0.01910622  0.45381983    -0.05300
C282        C  0.24498041  0.01627931  0.46428552     0.06900
C283        C  0.23338179  0.02668655  0.46042996     0.00700
H284        H  0.26789199  0.01305540  0.45305928     0.08300
H285        H  0.22234346  0.02822353  0.46627012     0.07400
N286        N  0.27003067  0.04758124  0.40313810    -0.36400
N287        N  0.26421757  0.06022851  0.39655582    -0.28600
C288        C  0.26867152  0.06069102  0.38150808    -0.03800
C289        C  0.27769969  0.04771820  0.37858105     0.04800
C290        C  0.27835324  0.03972675  0.39252903     0.02900
H291        H  0.26513007  0.06947270  0.37320340     0.08000
H292        H  0.28380747  0.02857992  0.39459211     0.06800
N293        N  0.24040920  0.08444381  0.57398702    -0.27600
N294        N  0.23166035  0.07619061  0.56438518    -0.35500
C295        C  0.22345672  0.08576774  0.55525988     0.00700
C296        C  0.22730779  0.10092445  0.55882923     0.06800
C297        C  0.23804021  0.09973250  0.57092157    -0.06300
H298        H  0.21623511  0.08193594  0.54569144     0.07400
H299        H  0.24436271  0.10917550  0.57633730     0.08600
Cu300      Cu  0.23426818  0.05286574  0.55963312     0.44200
Cu301      Cu  0.25628704  0.07355340  0.58915139     0.42000
Cu302      Cu  0.27111296  0.03914624  0.56920615     0.43900
N303        N  0.24393705  0.03393612  0.54862642    -0.35000
N304        N  0.25835751  0.02953107  0.55139643    -0.29200
C305        C  0.26209471  0.01785812  0.54172854    -0.05300
C306        C  0.24931793  0.01480504  0.53246840     0.06900
C307        C  0.23800147  0.02518686  0.53712889     0.00700
H308        H  0.27316343  0.01189625  0.54163598     0.08300
H309        H  0.22647158  0.02654731  0.53227781     0.07400
N310        N  0.27652346  0.04497252  0.59177561    -0.36400
N311        N  0.27071727  0.05679554  0.59971498    -0.28600
C312        C  0.27447251  0.05484810  0.61490502    -0.03800
C313        C  0.28301765  0.04120704  0.61630779     0.04800
C314        C  0.28405748  0.03537645  0.60146204     0.02900
H315        H  0.27059371  0.06228235  0.62426903     0.08000
H316        H  0.28895930  0.02430152  0.59810189     0.06800
O317        O  0.23031501  0.96684522  0.48221488    -0.73200
O318        O  0.23452366  0.99881672  0.51566994    -0.74200
O319        O  0.23210761  0.99992461  0.48275505    -0.62800
O320        O  0.23312657  0.96555487  0.51490608    -0.71300
O321        O  0.25881808  0.96459059  0.51242441    -0.70800
O322        O  0.25786450  0.99883677  0.48111040    -0.62100
O323        O  0.26027465  0.99742727  0.51410470    -0.74600
O324        O  0.25604407  0.96636032  0.47976104    -0.73400
Cu325      Cu  0.23159102  0.98286025  0.49901256     1.04600
Cu326      Cu  0.25913393  0.98179686  0.49682981     1.04300
C327        C  0.24255161  0.96170686  0.47562368     0.93000
C328        C  0.24799667  0.00312236  0.52018779     0.92100
C329        C  0.24492102  0.00454670  0.47670751     0.84200
C330        C  0.24621583  0.95941458  0.51835218     0.90500
N331        N  0.39137198  0.91852224  0.24658924    -0.27600
N332        N  0.39546082  0.93293662  0.24306583    -0.35500
C333        C  0.38532473  0.94287676  0.24940637     0.00700
C334        C  0.37423413  0.93439141  0.25732548     0.06800
C335        C  0.37835377  0.91893183  0.25532821    -0.06300
H336        H  0.38667877  0.95540334  0.24938258     0.07400
H337        H  0.37287427  0.90886615  0.26059725     0.08600
Cu338      Cu  0.41696190  0.93918121  0.23491941     0.44200
Cu339      Cu  0.40574425  0.89985860  0.24144312     0.42000
Cu340      Cu  0.44447788  0.91279824  0.25116066     0.43900
N341        N  0.43872712  0.94580334  0.24196499    -0.35000
N342        N  0.44825757  0.93653249  0.24966548    -0.29200
C343        C  0.46096338  0.94468031  0.25379619    -0.05300
C344        C  0.45919608  0.95971307  0.24836051     0.06900
C345        C  0.44507696  0.96001879  0.24082819     0.00700
H346        H  0.47116318  0.93976030  0.25927689     0.08300
H347        H  0.43987471  0.96977586  0.23480440     0.07400
N348        N  0.43964424  0.89156940  0.24093695    -0.36400
N349        N  0.42565910  0.88730914  0.23615587    -0.28600
C350        C  0.42715445  0.87553312  0.22594825    -0.03800
C351        C  0.44283889  0.87222975  0.22429716     0.04800
C352        C  0.45033788  0.88245801  0.23419128     0.02900
H353        H  0.41767272  0.87063830  0.21927533     0.08000
H354        H  0.46275745  0.88422033  0.23518748     0.06800
N355        N  0.56922255  0.89123219  0.22071304    -0.27600
N356        N  0.55689497  0.89827480  0.21473747    -0.35500
C357        C  0.54863728  0.88801552  0.20635802     0.00700
C358        C  0.55598033  0.87381957  0.20705661     0.06800
C359        C  0.56897935  0.87616933  0.21628347    -0.06300
H360        H  0.53759752  0.89050576  0.20086755     0.07400
H361        H  0.57730022  0.86748615  0.21994476     0.08600
Cu362      Cu  0.54934997  0.92047412  0.22002300     0.44200
Cu363      Cu  0.58520105  0.90219884  0.23550928     0.42000
Cu364      Cu  0.56740353  0.93580151  0.25307897     0.43900
N365        N  0.54026312  0.93924930  0.23190928    -0.35000
N366        N  0.54662388  0.94419251  0.24497414    -0.29200
C367        C  0.53799235  0.95571378  0.25091217    -0.05300
C368        C  0.52564083  0.95823061  0.24100022     0.06900
C369        C  0.52740249  0.94764635  0.22901371     0.00700
H370        H  0.54078638  0.96209700  0.26139306     0.08300
H371        H  0.51984562  0.94605235  0.21906591     0.07400
N372        N  0.59009266  0.92947483  0.25674467    -0.36400
N373        N  0.59717852  0.91753914  0.25017660    -0.28600
C374        C  0.61244857  0.91821275  0.25388391    -0.03800
C375        C  0.61480074  0.93118219  0.26323678     0.04800
C376        C  0.60041666  0.93795524  0.26473859     0.02900
H377        H  0.62120219  0.91024332  0.24968503     0.08000
H378        H  0.59776934  0.94874990  0.27061604     0.06800
N379        N  0.39461479  0.07012261  0.26210787    -0.27600
N380        N  0.40310333  0.06127855  0.27142899    -0.35500
C381        C  0.39366645  0.05165312  0.27930902     0.00700
C382        C  0.37857417  0.05404908  0.27438451     0.06800
C383        C  0.37954989  0.06600193  0.26358616    -0.06300
H384        H  0.39770297  0.04219011  0.28658908     0.07400
H385        H  0.37027014  0.07032595  0.25627554     0.08600
Cu386      Cu  0.42661134  0.05683722  0.26873926     0.44200
Cu387      Cu  0.40405651  0.08505530  0.24563497     0.42000
Cu388      Cu  0.43734789  0.06608010  0.23009306     0.43900
N389        N  0.44432232  0.04528544  0.25722358    -0.35000
N390        N  0.44718496  0.04802098  0.24235587    -0.29200
C391        C  0.45775634  0.03784513  0.23719397    -0.05300
C392        C  0.46184144  0.02822602  0.24940487     0.06900
C393        C  0.45314029  0.03323867  0.26199956     0.00700
H394        H  0.46221992  0.03755063  0.22541510     0.08300
H395        H  0.45281860  0.02818496  0.27355354     0.07400
N396        N  0.43087916  0.08827779  0.22384046    -0.36400
N397        N  0.41883432  0.09568134  0.22981267    -0.28600
C398        C  0.41905805  0.11056122  0.22482451    -0.03800
C399        C  0.43194237  0.11244392  0.21536716     0.04800
C400        C  0.43911815  0.09814067  0.21494451     0.02900
H401        H  0.41076192  0.11938290  0.22815481     0.08000
H402        H  0.44985077  0.09525836  0.20905458     0.06800
N403        N  0.56852832  0.09059706  0.21906350    -0.27600
N404        N  0.55810878  0.08144098  0.21240805    -0.35500
C405        C  0.54756845  0.09015335  0.20500042     0.00700
C406        C  0.55121593  0.10560481  0.20729016     0.06800
C407        C  0.56469508  0.10553938  0.21615328    -0.06300
H408        H  0.53720104  0.08558088  0.19950896     0.07400
H409        H  0.57062825  0.11552744  0.22099103     0.08600
Cu410      Cu  0.55455377  0.05841892  0.21779407     0.44200
Cu411      Cu  0.58569682  0.08196448  0.23377316     0.42000
Cu412      Cu  0.56815990  0.05018717  0.25553381     0.43900
N413        N  0.54445846  0.04179407  0.23177529    -0.35000
N414        N  0.54867979  0.03955372  0.24638309    -0.29200
C415        C  0.53903995  0.02909519  0.25298634    -0.05300
C416        C  0.52829465  0.02461449  0.24188706     0.06900
C417        C  0.53205187  0.03287089  0.22860121     0.00700
H418        H  0.53997838  0.02487555  0.26483153     0.08300
H419        H  0.52604518  0.03264525  0.21753065     0.07400
N420        N  0.59102899  0.05716667  0.25786196    -0.36400
N421        N  0.59789642  0.06817682  0.24951475    -0.28600
C422        C  0.61333609  0.06774183  0.25229915    -0.03800
C423        C  0.61612410  0.05592753  0.26294810     0.04800
C424        C  0.60176490  0.04954679  0.26619014     0.02900
H425        H  0.62189741  0.07501348  0.24656932     0.08000
H426        H  0.59940951  0.03943697  0.27335785     0.06800
O427        O  0.51082328  0.97572273  0.25613867    -0.73200
O428        O  0.47855745  0.00917772  0.26080198    -0.74200
O429        O  0.47820730  0.97588066  0.26002924    -0.62800
O430        O  0.51155108  0.00848684  0.25694185    -0.71300
O431        O  0.50907149  0.00823305  0.23118644    -0.70800
O432        O  0.47434566  0.97777652  0.23449346    -0.62100
O433        O  0.47678809  0.01040789  0.23502579    -0.74600
O434        O  0.50678327  0.97537172  0.23058535    -0.73400
Cu435      Cu  0.49484798  0.99229965  0.25943624     1.04600
Cu436      Cu  0.49162434  0.99296753  0.23195466     1.04300
C437        C  0.51377760  0.97025389  0.24264641     0.93000
C438        C  0.47285995  0.01528248  0.24847521     0.92100
C439        C  0.47108228  0.97174729  0.24767231     0.84200
C440        C  0.51571653  0.01325795  0.24346958     0.90500
N441        N  0.39947044  0.72425155  0.91325392    -0.27600
N442        N  0.40512963  0.71711125  0.92569864    -0.35500
C443        C  0.39366120  0.70933561  0.93291858     0.00700
C444        C  0.38008504  0.71165374  0.92476241     0.06800
C445        C  0.38409178  0.72117193  0.91233703    -0.06300
H446        H  0.39501954  0.70283770  0.94363762     0.07400
H447        H  0.37640004  0.72567217  0.90345254     0.08600
Cu448      Cu  0.42745012  0.71926376  0.93426737     0.44200
Cu449      Cu  0.41293596  0.73826400  0.89848395     0.42000
Cu450      Cu  0.44962911  0.74859470  0.91640179     0.43900
N451        N  0.44785749  0.72747117  0.94385660    -0.35000
N452        N  0.45556798  0.73916314  0.93748673    -0.29200
C453        C  0.46753912  0.74310253  0.94666534    -0.05300
C454        C  0.46741903  0.73328070  0.95935800     0.06900
C455        C  0.45486948  0.72341330  0.95724806     0.00700
H456        H  0.47590113  0.75219927  0.94409243     0.08300
H457        H  0.45094399  0.71424896  0.96498231     0.07400
N458        N  0.44343897  0.75508012  0.89428457    -0.36400
N459        N  0.43028320  0.75125582  0.88728094    -0.28600
C460        C  0.43103045  0.75613958  0.87234135    -0.03800
C461        C  0.44529535  0.76339732  0.87011078     0.04800
C462        C  0.45280865  0.76244805  0.88420358     0.02900
H463        H  0.42222576  0.75394331  0.86362629     0.08000
H464        H  0.46460276  0.76607373  0.88672331     0.06800
N465        N  0.60466559  0.72085065  0.92239358    -0.27600
N466        N  0.60076168  0.72690556  0.93598580    -0.35500
C467        C  0.61090009  0.72220846  0.94687014     0.00700
C468        C  0.62154579  0.71235908  0.94004432     0.06800
C469        C  0.61731726  0.71180843  0.92445290    -0.06300
H470        H  0.60930242  0.72397631  0.95923516     0.07400
H471        H  0.62209866  0.70420415  0.91565987     0.08600
Cu472      Cu  0.57897199  0.73550517  0.94125988     0.44200
Cu473      Cu  0.59075129  0.72335965  0.90255282     0.42000
Cu474      Cu  0.55024805  0.72472156  0.91393408     0.43900
N475        N  0.55570614  0.73340613  0.94705985    -0.35000
N476        N  0.54523937  0.72802839  0.93717220    -0.29200
C477        C  0.53155383  0.72633800  0.94457018    -0.05300
C478        C  0.53357982  0.73096162  0.95981366     0.06900
C479        C  0.54895608  0.73546284  0.96102218     0.00700
H480        H  0.52087301  0.72242989  0.93915976     0.08300
H481        H  0.55488083  0.73956370  0.97134547     0.07400
N482        N  0.55797770  0.72917990  0.89162713    -0.36400
N483        N  0.57274146  0.72932080  0.88728951    -0.28600
C484        C  0.57371009  0.73580149  0.87297770    -0.03800
C485        C  0.55881696  0.73981570  0.86822237     0.04800
C486        C  0.54922815  0.73543677  0.88032479     0.02900
H487        H  0.58447911  0.73844078  0.86700413     0.08000
H488        H  0.53694295  0.73790076  0.88141417     0.06800
N489        N  0.39170062  0.72955438  0.06084030    -0.27600
N490        N  0.40022596  0.72069865  0.05159161    -0.35500
C491        C  0.39086847  0.71261742  0.04209130     0.00700
C492        C  0.37571509  0.71650772  0.04537135     0.06800
C493        C  0.37655042  0.72729139  0.05732384    -0.06300
H494        H  0.39486330  0.70519858  0.03276454     0.07400
H495        H  0.36696923  0.73351633  0.06254612     0.08600
Cu496      Cu  0.42405058  0.72199509  0.04886597     0.44200
Cu497      Cu  0.40152969  0.74524071  0.07664911     0.42000
Cu498      Cu  0.43844884  0.75798447  0.06051592     0.43900
N499        N  0.44489877  0.73063241  0.04056763    -0.35000
N500        N  0.44951973  0.74487590  0.04396836    -0.29200
C501        C  0.46232500  0.74833491  0.03570774    -0.05300
C502        C  0.46597670  0.73555387  0.02672931     0.06900
C503        C  0.45472636  0.72449736  0.03008394     0.00700
H504        H  0.46849086  0.75932434  0.03620542     0.08300
H505        H  0.45335598  0.71316909  0.02476823     0.07400
N506        N  0.43065454  0.76378053  0.08232475    -0.36400
N507        N  0.41753984  0.75895578  0.08882201    -0.28600
C508        C  0.41758507  0.76328180  0.10394613    -0.03800
C509        C  0.43143824  0.77107586  0.10683307     0.04800
C510        C  0.43934267  0.77115202  0.09293057     0.02900
H511        H  0.40852490  0.76054254  0.11226339     0.08000
H512        H  0.45091082  0.77567632  0.09082530     0.06800
N513        N  0.59410240  0.70984457  0.07586128    -0.27600
N514        N  0.58579406  0.70247926  0.06523936    -0.35500
C515        C  0.59506675  0.69319844  0.05684454     0.00700
C516        C  0.61008503  0.69483737  0.06221549     0.06800
C517        C  0.60910985  0.70550737  0.07431164    -0.06300
H518        H  0.59151316  0.68729827  0.04630825     0.07400
H519        H  0.61874130  0.71081341  0.08043734     0.08600
Cu520      Cu  0.56436131  0.71001726  0.05807629     0.44200
Cu521      Cu  0.58430868  0.72785428  0.08903450     0.42000
Cu522      Cu  0.56237532  0.75174168  0.06249047     0.43900
N523        N  0.55022558  0.72409416  0.04495378    -0.35000
N524        N  0.55025053  0.73946141  0.04570353    -0.29200
C525        C  0.54015328  0.74504752  0.03514880    -0.05300
C526        C  0.53362283  0.73254004  0.02741296     0.06900
C527        C  0.54028243  0.71946928  0.03386796     0.00700
H528        H  0.53747283  0.75724287  0.03353585     0.08300
H529        H  0.53807563  0.70746270  0.03077099     0.07400
N530        N  0.56536273  0.75703274  0.08571630    -0.36400
N531        N  0.57117159  0.74716284  0.09598971    -0.28600
C532        C  0.56564696  0.75090631  0.11022802    -0.03800
C533        C  0.55604826  0.76383203  0.10873098     0.04800
C534        C  0.55661062  0.76757975  0.09309082     0.02900
H535        H  0.56738273  0.74397401  0.12060654     0.08000
H536        H  0.54952063  0.77612845  0.08719277     0.06800
O537        O  0.48313802  0.72120430  0.01064599    -0.73200
O538        O  0.51557537  0.71908211  0.97707154    -0.74200
O539        O  0.51617530  0.72004283  0.01019208    -0.62800
O540        O  0.48271508  0.72015464  0.97799138    -0.71300
O541        O  0.48489324  0.74590026  0.97639918    -0.70800
O542        O  0.51694748  0.74589686  0.01005761    -0.62100
O543        O  0.51768723  0.74487319  0.97727535    -0.74600
O544        O  0.48418289  0.74702624  0.00949870    -0.73400
Cu545      Cu  0.49940126  0.71919795  0.99403869     1.04600
Cu546      Cu  0.50093482  0.74683460  0.99328907     1.04300
C547        C  0.47839405  0.73452123  0.01513868     0.93000
C548        C  0.52173894  0.73164724  0.97196694     0.92100
C549        C  0.52171191  0.73286177  0.01530456     0.84200
C550        C  0.47876961  0.73310473  0.97193323     0.90500
N551        N  0.41078883  0.89732167  0.71186829    -0.27600
N552        N  0.41718239  0.91041907  0.70687028    -0.35500
C553        C  0.40716536  0.91782804  0.69751603     0.00700
C554        C  0.39368474  0.90916493  0.69661528     0.06800
C555        C  0.39631273  0.89619209  0.70590096    -0.06300
H556        H  0.40880762  0.92958540  0.69327730     0.07400
H557        H  0.38785270  0.88746619  0.70927001     0.08600
Cu558      Cu  0.43650963  0.92067647  0.71671566     0.44200
Cu559      Cu  0.42135676  0.88378356  0.72897834     0.42000
Cu560      Cu  0.44225881  0.90937141  0.75594212     0.43900
N561        N  0.45098044  0.93271186  0.73162033    -0.35000
N562        N  0.45232788  0.92918755  0.74653659    -0.29200
C563        C  0.46288989  0.93874034  0.75305974    -0.05300
C564        C  0.46842090  0.94870802  0.74162780     0.06900
C565        C  0.46059211  0.94458664  0.72820562     0.00700
H566        H  0.46692625  0.93785831  0.76495701     0.08300
H567        H  0.46212277  0.94951357  0.71668728     0.07400
N568        N  0.44128615  0.88538598  0.75784627    -0.36400
N569        N  0.43516391  0.87597800  0.74732008    -0.28600
C570        C  0.44068375  0.86149693  0.74970627    -0.03800
C571        C  0.45065463  0.86183802  0.76240346     0.04800
C572        C  0.45048128  0.87712750  0.76736473     0.02900
H573        H  0.43844446  0.85172018  0.74212067     0.08000
H574        H  0.45765732  0.88218503  0.77638452     0.06800
N575        N  0.60439960  0.90571966  0.72023016    -0.27600
N576        N  0.59539822  0.91665784  0.71428228    -0.35500
C577        C  0.60351240  0.92513898  0.70398397     0.00700
C578        C  0.61841237  0.91934065  0.70324869     0.06800
C579        C  0.61865852  0.90698952  0.71372576    -0.06300
H580        H  0.59900751  0.93513771  0.69779156     0.07400
H581        H  0.62846516  0.89965560  0.71653904     0.08600
Cu582      Cu  0.57313591  0.92128679  0.72149596     0.44200
Cu583      Cu  0.59616358  0.89033833  0.73727680     0.42000
Cu584      Cu  0.56238248  0.90608695  0.75823316     0.43900
N585        N  0.55440312  0.92929980  0.73385022    -0.35000
N586        N  0.55102163  0.92452946  0.74808007    -0.29200
C587        C  0.53941448  0.93327479  0.75377895    -0.05300
C588        C  0.53538239  0.94396984  0.74245664     0.06900
C589        C  0.54502877  0.94110157  0.72998017     0.00700
H590        H  0.53441232  0.93201015  0.76527580     0.08300
H591        H  0.54572050  0.94759808  0.71917798     0.07400
N592        N  0.57111151  0.88401636  0.76130480    -0.36400
N593        N  0.58278140  0.87783911  0.75340512    -0.28600
C594        C  0.58305957  0.86239136  0.75628212    -0.03800
C595        C  0.57106222  0.85889813  0.76649259     0.04800
C596        C  0.56378863  0.87282835  0.76939190     0.02900
H597        H  0.59074583  0.85422147  0.75062983     0.08000
H598        H  0.55314793  0.87450349  0.77589971     0.06800
N599        N  0.40000950  0.04606868  0.73109685    -0.27600
N600        N  0.40442452  0.03290822  0.73777090    -0.35500
C601        C  0.39499608  0.02132542  0.73313737     0.00700
C602        C  0.38434982  0.02723587  0.72263556     0.06800
C603        C  0.38777671  0.04302434  0.72174430    -0.06300
H604        H  0.39675313  0.00919388  0.73601705     0.07400
H605        H  0.38254828  0.05141725  0.71394893     0.08600
Cu606      Cu  0.42591849  0.02946861  0.74800844     0.44200
Cu607      Cu  0.41257867  0.06693153  0.73308428     0.42000
Cu608      Cu  0.45246122  0.05672420  0.73128065     0.43900
N609        N  0.44967105  0.02581245  0.74706618    -0.35000
N610        N  0.45909906  0.03524975  0.73935512    -0.29200
C611        C  0.47326928  0.02883386  0.73848994    -0.05300
C612        C  0.47278084  0.01481178  0.74627969     0.06900
C613        C  0.45767264  0.01315035  0.75152391     0.00700
H614        H  0.48309760  0.03388585  0.73240719     0.08300
H615        H  0.45260430  0.00300947  0.75707106     0.07400
N616        N  0.44516954  0.07927069  0.73400460    -0.36400
N617        N  0.43046846  0.08335647  0.73562952    -0.28600
C618        C  0.43003545  0.09812044  0.74099009    -0.03800
C619        C  0.44525423  0.10338661  0.74288138     0.04800
C620        C  0.45441710  0.09109470  0.73825471     0.02900
H621        H  0.41953314  0.10410657  0.74440415     0.08000
H622        H  0.46691233  0.09024058  0.73946499     0.06800
N623        N  0.60892790  0.05128526  0.71898801    -0.27600
N624        N  0.60267842  0.03736742  0.71685761    -0.35500
C625        C  0.61214599  0.02870809  0.70806450     0.00700
C626        C  0.62506339  0.03745154  0.70437107     0.06800
C627        C  0.62274848  0.05177927  0.71145977    -0.06300
H628        H  0.60998329  0.01670168  0.70495629     0.07400
H629        H  0.63064036  0.06160748  0.71146278     0.08600
Cu630      Cu  0.58231294  0.02951810  0.72678717     0.44200
Cu631      Cu  0.59784715  0.06806306  0.73276827     0.42000
Cu632      Cu  0.56915858  0.04878748  0.75947364     0.43900
N633        N  0.56356603  0.02146414  0.73940304    -0.35000
N634        N  0.55910822  0.02798479  0.75254391    -0.29200
C635        C  0.54619894  0.02067214  0.75775821    -0.05300
C636        C  0.54235472  0.00915513  0.74714607     0.06900
C637        C  0.55362172  0.01000960  0.73570088     0.00700
H638        H  0.53948799  0.02423066  0.76779096     0.08300
H639        H  0.55427547  0.00312401  0.72519181     0.07400
N640        N  0.57290542  0.07253897  0.75742167    -0.36400
N641        N  0.58212597  0.07975107  0.74732207    -0.28600
C642        C  0.57823865  0.09499516  0.74697482    -0.03800
C643        C  0.56603189  0.09731136  0.75730135     0.04800
C644        C  0.56318460  0.08288613  0.76375701     0.02900
H645        H  0.58315772  0.10348469  0.73904433     0.08000
H646        H  0.55369878  0.07984793  0.77149613     0.06800
O647        O  0.48868982  0.99610051  0.75866604    -0.73200
O648        O  0.51947848  0.96125975  0.75682401    -0.74200
O649        O  0.52204316  0.99432843  0.75924289    -0.62800
O650        O  0.48670243  0.96340541  0.75630886    -0.71300
O651        O  0.48673563  0.96622518  0.73059207    -0.70800
O652        O  0.52318118  0.99509603  0.73341674    -0.62100
O653        O  0.51940517  0.96293540  0.73098801    -0.74600
O654        O  0.49045704  0.99881608  0.73296985    -0.73400
Cu655      Cu  0.50422294  0.97875870  0.75871494     1.04600
Cu656      Cu  0.50494099  0.98087153  0.73112014     1.04300
C657        C  0.48464597  0.00278807  0.74602318     0.93000
C658        C  0.52414753  0.95656590  0.74352948     0.92100
C659        C  0.52846905  0.99916002  0.74668035     0.84200
C660        C  0.48115796  0.96003208  0.74293680     0.90500
N661        N  0.40807172  0.25788580  0.89566087    -0.27600
N662        N  0.41622839  0.26320168  0.90757922    -0.35500
C663        C  0.40748561  0.27299887  0.91590659     0.00700
C664        C  0.39307187  0.27414572  0.90899996     0.06800
C665        C  0.39378959  0.26439870  0.89611452    -0.06300
H666        H  0.41114082  0.27839068  0.92667914     0.07400
H667        H  0.38450989  0.26186358  0.88800028     0.08600
Cu668      Cu  0.43774560  0.25531528  0.91441085     0.44200
Cu669      Cu  0.41672994  0.24063078  0.88080429     0.42000
Cu670      Cu  0.44123089  0.21585540  0.90428919     0.43900
N671        N  0.45399876  0.24099686  0.92452751    -0.35000
N672        N  0.45432426  0.22592834  0.92161106    -0.29200
C673        C  0.46527290  0.21923179  0.93047267    -0.05300
C674        C  0.47216812  0.23069633  0.93936496     0.06900
C675        C  0.46476516  0.24437765  0.93534698     0.00700
H676        H  0.46811571  0.20697882  0.93030245     0.08300
H677        H  0.46673964  0.25582825  0.94020920     0.07400
N678        N  0.43703600  0.21213391  0.88102917    -0.36400
N679        N  0.42928279  0.22177027  0.87187175    -0.28600
C680        C  0.43277255  0.21836629  0.85692573    -0.03800
C681        C  0.44318308  0.20603739  0.85684967     0.04800
C682        C  0.44545173  0.20236319  0.87230894     0.02900
H683        H  0.42907518  0.22514643  0.84697471     0.08000
H684        H  0.45398164  0.19434968  0.87692260     0.06800
N685        N  0.61104218  0.23530980  0.90343599    -0.27600
N686        N  0.60275311  0.24178462  0.91461546    -0.35500
C687        C  0.61223955  0.24874782  0.92480072     0.00700
C688        C  0.62738100  0.24635798  0.92014787     0.06800
C689        C  0.62627721  0.23787381  0.90642529    -0.06300
H690        H  0.60846807  0.25368156  0.93574692     0.07400
H691        H  0.63577648  0.23286571  0.89990267     0.08600
Cu692      Cu  0.57995239  0.23642063  0.91922485     0.44200
Cu693      Cu  0.60022901  0.22114520  0.88683735     0.42000
Cu694      Cu  0.56885663  0.19920719  0.90705985     0.43900
N695        N  0.56123482  0.22479278  0.92855672    -0.35000
N696        N  0.55757442  0.21030619  0.92501772    -0.29200
C697        C  0.54482169  0.20606422  0.93314065    -0.05300
C698        C  0.54036800  0.21865312  0.94211887     0.06900
C699        C  0.55106831  0.23022985  0.93897758     0.00700
H700        H  0.53891526  0.19497687  0.93208671     0.08300
H701        H  0.55140028  0.24183417  0.94383694     0.07400
N702        N  0.57352570  0.19829535  0.88354499    -0.36400
N703        N  0.58390613  0.20672885  0.87581732    -0.28600
C704        C  0.58125689  0.20498554  0.86040788    -0.03800
C705        C  0.56867640  0.19499131  0.85855474     0.04800
C706        C  0.56416060  0.19104434  0.87342403     0.02900
H707        H  0.58775379  0.21078616  0.85128518     0.08000
H708        H  0.55425061  0.18396308  0.87668657     0.06800
N709        N  0.40571097  0.25855804  0.04800534    -0.27600
N710        N  0.41421023  0.26361090  0.03616504    -0.35500
C711        C  0.40522715  0.27203418  0.02659283     0.00700
C712        C  0.39035568  0.27235598  0.03258509     0.06800
C713        C  0.39100913  0.26372862  0.04621988    -0.06300
H714        H  0.40895899  0.27657950  0.01543489     0.07400
H715        H  0.38134060  0.26053859  0.05364711     0.08600
Cu716      Cu  0.43630549  0.25592459  0.03059938     0.44200
Cu717      Cu  0.41402667  0.24249087  0.06412571     0.42000
Cu718      Cu  0.44238492  0.21796612  0.04417165     0.43900
N719        N  0.45307368  0.24158922  0.02109739    -0.35000
N720        N  0.45429327  0.22685292  0.02528759    -0.29200
C721        C  0.46500090  0.21986912  0.01632522    -0.05300
C722        C  0.47088492  0.23082708  0.00608717     0.06900
C723        C  0.46312220  0.24449674  0.00943944     0.00700
H724        H  0.46852113  0.20784082  0.01746052     0.08300
H725        H  0.46441392  0.25561310  0.00361121     0.07400
N726        N  0.43546607  0.21499997  0.06698840    -0.36400
N727        N  0.42586013  0.22420720  0.07468386    -0.28600
C728        C  0.42627758  0.22034853  0.08990793    -0.03800
C729        C  0.43662042  0.20815003  0.09170508     0.04800
C730        C  0.44216307  0.20508740  0.07698842     0.02900
H731        H  0.42013362  0.22643047  0.09903193     0.08000
H732        H  0.45124529  0.19695967  0.07392996     0.06800
N733        N  0.60795081  0.21851311  0.05109688    -0.27600
N734        N  0.60393349  0.22180020  0.03659642    -0.35500
C735        C  0.61609040  0.22804880  0.02910399     0.00700
C736        C  0.62838679  0.22890893  0.03929726     0.06800
C737        C  0.62288654  0.22288295  0.05324650    -0.06300
H738        H  0.61572800  0.23251210  0.01731962     0.07400
H739        H  0.62904970  0.22224383  0.06420473     0.08600
Cu740      Cu  0.58196006  0.21981529  0.02737250     0.44200
Cu741      Cu  0.59248473  0.20858017  0.06693340     0.42000
Cu742      Cu  0.55589616  0.19657045  0.04780510     0.43900
N743        N  0.55945728  0.21672993  0.01993140    -0.35000
N744        N  0.54989394  0.20709985  0.02715918    -0.29200
C745        C  0.53625349  0.20676000  0.01957634    -0.05300
C746        C  0.53728848  0.21694040  0.00716005     0.06900
C747        C  0.55212341  0.22309947  0.00767869     0.00700
H748        H  0.52626621  0.19986835  0.02301547     0.08300
H749        H  0.55733516  0.23123005  0.99954783     0.07400
N750        N  0.56157495  0.19216090  0.07065741    -0.36400
N751        N  0.57424582  0.19699535  0.07796642    -0.28600
C752        C  0.57273569  0.19377559  0.09326504    -0.03800
C753        C  0.55850640  0.18653510  0.09546834     0.04800
C754        C  0.55179010  0.18572701  0.08096972     0.02900
H755        H  0.58104035  0.19702520  0.10214485     0.08000
H756        H  0.54019724  0.18163565  0.07824812     0.06800
O757        O  0.52379458  0.23382125  0.95757512    -0.73200
O758        O  0.49080721  0.24015182  0.98944546    -0.74200
O759        O  0.52331297  0.23344941  0.99006867    -0.62800
O760        O  0.49141491  0.24023773  0.95670002    -0.71300
O761        O  0.48699219  0.21475267  0.95608991    -0.70800
O762        O  0.51766046  0.20818165  0.99020168    -0.62100
O763        O  0.48561780  0.21480705  0.98912489    -0.74600
O764        O  0.51940065  0.20833039  0.95725891    -0.73400
Cu765      Cu  0.50749655  0.23780285  0.97343301     1.04600
Cu766      Cu  0.50220556  0.21062011  0.97312920     1.04300
C767        C  0.52712855  0.22022981  0.95269770     0.93000
C768        C  0.48298409  0.22847799  0.99432038     0.92100
C769        C  0.52549879  0.21970138  0.99530346     0.84200
C770        C  0.48414880  0.22848677  0.95121137     0.90500
N771        N  0.27568135  0.39817943  0.89486777    -0.27600
N772        N  0.28218970  0.40642032  0.90612305    -0.35500
C773        C  0.29146167  0.39727967  0.91465939     0.00700
C774        C  0.29081499  0.38244185  0.90876666     0.06800
C775        C  0.28067270  0.38331356  0.89617905    -0.06300
H776        H  0.29686825  0.40078135  0.92547720     0.07400
H777        H  0.27632663  0.37368303  0.88934121     0.08600
Cu778      Cu  0.27453210  0.42758992  0.91393410     0.44200
Cu779      Cu  0.25839979  0.40770666  0.88034859     0.42000
Cu780      Cu  0.23643718  0.43590845  0.90348909     0.43900
N781        N  0.26059623  0.44147048  0.92743310    -0.35000
N782        N  0.24580856  0.44376584  0.92411111    -0.29200
C783        C  0.23940073  0.45262085  0.93527412    -0.05300
C784        C  0.25083230  0.45601193  0.94608887     0.06900
C785        C  0.26411133  0.44877014  0.94076764     0.00700
H786        H  0.22756802  0.45684929  0.93513898     0.08300
H787        H  0.27552282  0.44891573  0.94609245     0.07400
N788        N  0.23271728  0.43168717  0.88016112    -0.36400
N789        N  0.24075617  0.42205029  0.87126112    -0.28600
C790        C  0.23608610  0.42402875  0.85633629    -0.03800
C791        C  0.22460907  0.43537691  0.85610135     0.04800
C792        C  0.22284353  0.43989280  0.87133884     0.02900
H793        H  0.24093912  0.41801837  0.84641739     0.08000
H794        H  0.21535122  0.44901205  0.87564547     0.06800
N795        N  0.21916873  0.57063863  0.88870298    -0.27600
N796        N  0.21142358  0.56065651  0.89753443    -0.35500
C797        C  0.20124953  0.55277692  0.88871272     0.00700
C798        C  0.20312911  0.55726253  0.87334726     0.06800
C799        C  0.21444989  0.56885121  0.87379999    -0.06300
H800        H  0.19483941  0.54269211  0.89275743     0.07400
H801        H  0.22008157  0.57422449  0.86388179     0.08600
Cu802      Cu  0.21976990  0.55212110  0.91848175     0.44200
Cu803      Cu  0.23794279  0.58353701  0.89744996     0.42000
Cu804      Cu  0.26083504  0.55882872  0.92204310     0.43900
N805        N  0.23409535  0.53897494  0.93276866    -0.35000
N806        N  0.24934246  0.54093908  0.93325974    -0.29200
C807        C  0.25550102  0.53059826  0.94321581    -0.05300
C808        C  0.24357234  0.52164331  0.94924055     0.06900
C809        C  0.23014134  0.52719703  0.94235423     0.00700
H810        H  0.26771957  0.52995155  0.94616951     0.08300
H811        H  0.21838711  0.52304754  0.94420491     0.07400
N812        N  0.26604503  0.58192590  0.91821722    -0.36400
N813        N  0.25679886  0.59158321  0.91064739    -0.28600
C814        C  0.26064052  0.60629346  0.91462539    -0.03800
C815        C  0.27293967  0.60575992  0.92512500     0.04800
C816        C  0.27620148  0.59010585  0.92678167     0.02900
H817        H  0.25418560  0.61650268  0.91113307     0.08000
H818        H  0.28430246  0.58494873  0.93491563     0.06800
N819        N  0.26536567  0.38357107  0.05191281    -0.27600
N820        N  0.25835731  0.38701727  0.03864789    -0.35500
C821        C  0.26378699  0.37777092  0.02733382     0.00700
C822        C  0.27521147  0.36831425  0.03347535     0.06800
C823        C  0.27580018  0.37217028  0.04918097    -0.06300
H824        H  0.26119724  0.37933680  0.01510027     0.07400
H825        H  0.28423692  0.36811315  0.05758599     0.08600
Cu826      Cu  0.24791360  0.40814877  0.03421071     0.44200
Cu827      Cu  0.26236119  0.39716928  0.07198488     0.42000
Cu828      Cu  0.26464785  0.43664384  0.05961110     0.43900
N829        N  0.25062711  0.43128876  0.02817969    -0.35000
N830        N  0.25843861  0.44128068  0.03688631    -0.29200
C831        C  0.25992102  0.45479854  0.02913780    -0.05300
C832        C  0.25253868  0.45321436  0.01497716     0.06900
C833        C  0.24672000  0.43823614  0.01470682     0.00700
H834        H  0.26547122  0.46514721  0.03369774     0.08300
H835        H  0.24052988  0.43266054  0.00527017     0.07400
N836        N  0.25984551  0.43045712  0.08232133    -0.36400
N837        N  0.25787905  0.41591337  0.08698837    -0.28600
C838        C  0.25091190  0.41607744  0.10110078    -0.03800
C839        C  0.24852090  0.43149214  0.10542574     0.04800
C840        C  0.25437065  0.44018438  0.09321924     0.02900
H841        H  0.24676578  0.40582634  0.10717086     0.08000
H842        H  0.25319294  0.45262048  0.09163953     0.06800
N843        N  0.22924375  0.56552812  0.08180249    -0.27600
N844        N  0.22182455  0.55405010  0.07469731    -0.35500
C845        C  0.21440803  0.54535124  0.08534659     0.00700
C846        C  0.21736718  0.55147674  0.09984993     0.06800
C847        C  0.22682931  0.56427180  0.09726386    -0.06300
H848        H  0.20858101  0.53445908  0.08286720     0.07400
H849        H  0.23243547  0.57140933  0.10598193     0.08600
Cu850      Cu  0.22563935  0.54697182  0.05207610     0.44200
Cu851      Cu  0.24441966  0.58060205  0.07048581     0.42000
Cu852      Cu  0.26203113  0.56061716  0.03835646     0.43900
N853        N  0.23753342  0.53623213  0.03422910    -0.35000
N854        N  0.25161369  0.54075567  0.03002691    -0.29200
C855        C  0.25697686  0.53120987  0.01894785    -0.05300
C856        C  0.24565848  0.52019545  0.01596328     0.06900
C857        C  0.23345802  0.52366795  0.02583949     0.00700
H858        H  0.26807364  0.53252651  0.01313419     0.08300
H859        H  0.22250173  0.51752132  0.02690084     0.07400
N860        N  0.26730591  0.58317075  0.04433643    -0.36400
N861        N  0.26057218  0.59092377  0.05575934    -0.28600
C862        C  0.26539571  0.60585007  0.05523350    -0.03800
C863        C  0.27565081  0.60736256  0.04289243     0.04800
C864        C  0.27656367  0.59281894  0.03626601     0.02900
H865        H  0.26136089  0.61497048  0.06288100     0.08000
H866        H  0.28290474  0.58965739  0.02586484     0.06800
O867        O  0.26213750  0.47232950  0.96510472    -0.73200
O868        O  0.25952198  0.50487077  0.99799215    -0.74200
O869        O  0.26302378  0.47234146  0.99817889    -0.62800
O870        O  0.25854884  0.50500578  0.96526214    -0.71300
O871        O  0.23282306  0.50293072  0.96660962    -0.70800
O872        O  0.23748627  0.46827935  0.99758873    -0.62100
O873        O  0.23399837  0.50111128  0.99968624    -0.74600
O874        O  0.23636708  0.47040755  0.96461299    -0.73400
Cu875      Cu  0.26170543  0.48869310  0.98161380     1.04600
Cu876      Cu  0.23424440  0.48555145  0.98218712     1.04300
C877        C  0.24969877  0.46662556  0.95931540     0.93000
C878        C  0.24639068  0.50807593  0.00407613     0.92100
C879        C  0.25094570  0.46511768  0.00297156     0.84200
C880        C  0.24501691  0.50926194  0.96089594     0.90500
N881        N  0.91468772  0.37708411  0.72533643    -0.27600
N882        N  0.92842420  0.38337540  0.72223881    -0.35500
C883        C  0.93739132  0.37296715  0.71494810     0.00700
C884        C  0.92904387  0.35940568  0.71324285     0.06800
C885        C  0.91463279  0.36231525  0.71991764    -0.06300
H886        H  0.94929744  0.37503784  0.71139836     0.07400
H887        H  0.90501073  0.35425003  0.72102721     0.08600
Cu888      Cu  0.93576612  0.40523304  0.72872368     0.44200
Cu889      Cu  0.89734402  0.38909718  0.73765358     0.42000
Cu890      Cu  0.91479323  0.42185609  0.75898812     0.43900
N891        N  0.94285093  0.42552445  0.73924064    -0.35000
N892        N  0.93551526  0.43126967  0.75141882    -0.29200
C893        C  0.94270765  0.44439967  0.75599301    -0.05300
C894        C  0.95506184  0.44703354  0.74601756     0.06900
C895        C  0.95482128  0.43488048  0.73553225     0.00700
H896        H  0.93880903  0.45181527  0.76536528     0.08300
H897        H  0.96271698  0.43299765  0.72589493     0.07400
N898        N  0.89157733  0.41591600  0.75964767    -0.36400
N899        N  0.88472163  0.40476310  0.75151806    -0.28600
C900        C  0.86914144  0.40632054  0.75309786    -0.03800
C901        C  0.86632383  0.41900267  0.76268382     0.04800
C902        C  0.88076588  0.42470225  0.76654721     0.02900
H903        H  0.86056567  0.39926788  0.74716597     0.08000
H904        H  0.88322992  0.43515709  0.77310404     0.06800
N905        N  0.91191501  0.58208130  0.71644341    -0.27600
N906        N  0.92568224  0.57955857  0.72281458    -0.35500
C907        C  0.93613548  0.58941835  0.71664673     0.00700
C908        C  0.92889983  0.59842407  0.70545499     0.06800
C909        C  0.91344574  0.59353416  0.70570570    -0.06300
H910        H  0.94844570  0.58914787  0.71920349     0.07400
H911        H  0.90424358  0.59736510  0.69803517     0.08600
Cu912      Cu  0.93152023  0.56004725  0.73568200     0.44200
Cu913      Cu  0.89236939  0.56839108  0.72207337     0.42000
Cu914      Cu  0.90541068  0.52921530  0.72765535     0.43900
N915        N  0.93740237  0.53688930  0.73857017    -0.35000
N916        N  0.92801690  0.52551945  0.73418805    -0.29200
C917        C  0.93540722  0.51186100  0.73552119    -0.05300
C918        C  0.95009531  0.51480729  0.74117310     0.06900
C919        C  0.95109288  0.53075351  0.74293178     0.00700
H920        H  0.93047422  0.50066521  0.73251551     0.08300
H921        H  0.96123121  0.53743655  0.74631182     0.07400
N922        N  0.88293839  0.53599169  0.73156435    -0.36400
N923        N  0.87797184  0.55051236  0.73069554    -0.28600
C924        C  0.86398578  0.55129808  0.73785478    -0.03800
C925        C  0.86015145  0.53650513  0.74327726     0.04800
C926        C  0.87242928  0.52721106  0.73906608     0.02900
H927        H  0.85763753  0.56194181  0.73992245     0.08000
H928        H  0.87428439  0.51524787  0.74255001     0.06800
N929        N  0.09509878  0.41807920  0.74336881    -0.27600
N930        N  0.08970227  0.43244598  0.74257787    -0.35500
C931        C  0.10038956  0.44245791  0.74795541     0.00700
C932        C  0.11330869  0.43421183  0.75249243     0.06800
C933        C  0.10958725  0.41868276  0.74953605    -0.06300
H934        H  0.09835946  0.45474457  0.74975365     0.07400
H935        H  0.11649061  0.40860709  0.75251788     0.08600
Cu936      Cu  0.06684107  0.43802284  0.73880828     0.44200
Cu937      Cu  0.08066907  0.39896501  0.73756868     0.42000
Cu938      Cu  0.04116569  0.40807724  0.75043601     0.43900
N939        N  0.04407224  0.44213421  0.74459499    -0.35000
N940        N  0.03478167  0.43125545  0.75029264    -0.29200
C941        C  0.02079765  0.43756686  0.75326312    -0.05300
C942        C  0.02150370  0.45312997  0.74922348     0.06900
C943        C  0.03632906  0.45561986  0.74365927     0.00700
H944        H  0.01063304  0.43110761  0.75700580     0.08300
H945        H  0.04104686  0.46634091  0.73895166     0.07400
N946        N  0.04729773  0.38757061  0.73955212    -0.36400
N947        N  0.06103478  0.38469440  0.73324139    -0.28600
C948        C  0.05938093  0.37258995  0.72330457    -0.03800
C949        C  0.04390666  0.36767831  0.72352903     0.04800
C950        C  0.03681060  0.37730796  0.73421507     0.02900
H951        H  0.06849037  0.36832557  0.71575700     0.08000
H952        H  0.02452100  0.37775905  0.73686354     0.06800
N953        N  0.05744238  0.58779610  0.72047052    -0.27600
N954        N  0.04672304  0.57868179  0.71422871    -0.35500
C955        C  0.03857809  0.58675424  0.70365604     0.00700
C956        C  0.04427147  0.60175876  0.70319929     0.06800
C957        C  0.05625953  0.60208233  0.71400533    -0.06300
H958        H  0.02826816  0.58244980  0.69784908     0.07400
H959        H  0.06278871  0.61219463  0.71771429     0.08600
Cu960      Cu  0.04036020  0.55719862  0.72285505     0.44200
Cu961      Cu  0.07135364  0.58034689  0.73899638     0.42000
Cu962      Cu  0.05169587  0.54963340  0.76154404     0.43900
N963        N  0.03061345  0.53961742  0.73601435    -0.35000
N964        N  0.03407943  0.53741537  0.75082550    -0.29200
C965        C  0.02550779  0.52554868  0.75643368    -0.05300
C966        C  0.01627283  0.52005270  0.74447583     0.06900
C967        C  0.01978359  0.52921238  0.73170675     0.00700
H968        H  0.02629108  0.52098768  0.76816312     0.08300
H969        H  0.01479774  0.52843714  0.72016655     0.07400
N970        N  0.07400738  0.55739151  0.76564977    -0.36400
N971        N  0.08162567  0.56781395  0.75717989    -0.28600
C972        C  0.09684608  0.56711640  0.76093149    -0.03800
C973        C  0.09872382  0.55577706  0.77229699     0.04800
C974        C  0.08403380  0.54994550  0.77497304     0.02900
H975        H  0.10597994  0.57343733  0.75496291     0.08000
H976        H  0.08109513  0.53988291  0.78199621     0.06800
O977        O  0.96880051  0.46742244  0.75860797    -0.73200
O978        O  0.00072903  0.50160544  0.75804832    -0.74200
O979        O  0.96794171  0.50044099  0.75633585    -0.62800
O980        O  0.00169735  0.46860075  0.76036878    -0.71300
O981        O  0.00444923  0.46872914  0.73462309    -0.70800
O982        O  0.96804392  0.49707594  0.73067155    -0.62100
O983        O  0.00051042  0.50118746  0.73218000    -0.74600
O984        O  0.97201212  0.46446479  0.73311218    -0.73400
Cu985      Cu  0.98472843  0.48457226  0.75928747     1.04600
Cu986      Cu  0.98628666  0.48279959  0.73174499     1.04300
C987        C  0.96575498  0.46028483  0.74594048     0.93000
C988        C  0.00533586  0.50700262  0.74495632     0.92100
C989        C  0.96260231  0.50357991  0.74283407     0.84200
C990        C  0.00858027  0.46395694  0.74806516     0.90500
N991        N  0.72683339  0.37461186  0.91055099    -0.27600
N992        N  0.72039276  0.38189176  0.92249076    -0.35500
C993        C  0.71295491  0.37155502  0.93157286     0.00700
C994        C  0.71472074  0.35696646  0.92525884     0.06800
C995        C  0.72361610  0.35923943  0.91190820    -0.06300
H996        H  0.70749129  0.37433582  0.94256538     0.07400
H997        H  0.72796588  0.35033328  0.90418422     0.08600
Cu998      Cu  0.72446035  0.40465811  0.92883900     0.44200
Cu999      Cu  0.74125632  0.38610802  0.89423069     0.42000
Cu1000     Cu  0.76082300  0.41672428  0.91506223     0.43900
N1001       N  0.73610906  0.42336106  0.93826977    -0.35000
N1002       N  0.75033957  0.42699703  0.93377663    -0.29200
C1003       C  0.75574591  0.43869455  0.94254358    -0.05300
C1004       C  0.74429272  0.44261681  0.95304296     0.06900
C1005       C  0.73195394  0.43272284  0.95005909     0.00700
H1006       H  0.76708202  0.44406176  0.94121691     0.08300
H1007       H  0.72101186  0.43206117  0.95625356     0.07400
N1008       N  0.76494376  0.41187748  0.89212769    -0.36400
N1009       N  0.75732964  0.40149193  0.88371743    -0.28600
C1010       C  0.76122142  0.40370411  0.86858772    -0.03800
C1011       C  0.77177380  0.41603960  0.86772384     0.04800
C1012       C  0.77375463  0.42081187  0.88286371     0.02900
H1013       H  0.75633059  0.39727646  0.85894289     0.08000
H1014       H  0.78035399  0.43080443  0.88677837     0.06800
N1015       N  0.73096480  0.58357494  0.91892400    -0.27600
N1016       N  0.72428009  0.57443157  0.92940855    -0.35500
C1017       C  0.71613975  0.58305793  0.93950666     0.00700
C1018       C  0.71773422  0.59851958  0.93551540     0.06800
C1019       C  0.72719656  0.59850081  0.92231590    -0.06300
H1020       H  0.71044270  0.57847832  0.94978634     0.07400
H1021       H  0.73169403  0.60859651  0.91623429     0.08600
Cu1022     Cu  0.72920664  0.55118452  0.93275150     0.44200
Cu1023     Cu  0.74617600  0.57430592  0.90189232     0.42000
Cu1024     Cu  0.76630129  0.54131380  0.91983000     0.43900
N1025       N  0.74050007  0.53154073  0.94065355    -0.35000
N1026       N  0.75501127  0.52849495  0.93674246    -0.29200
C1027       C  0.75985549  0.51584190  0.94459166    -0.05300
C1028       C  0.74771892  0.51072674  0.95388717     0.06900
C1029       C  0.73562697  0.52092977  0.95109119     0.00700
H1030       H  0.77130494  0.51075693  0.94357907     0.08300
H1031       H  0.72432834  0.52098395  0.95665028     0.07400
N1032       N  0.76912040  0.54802479  0.89696928    -0.36400
N1033       N  0.76107613  0.55895200  0.88967742    -0.28600
C1034       C  0.76291463  0.55685403  0.87414225    -0.03800
C1035       C  0.77252441  0.54402892  0.87178861     0.04800
C1036       C  0.77627586  0.53896716  0.88652842     0.02900
H1037       H  0.75685699  0.56340591  0.86526242     0.08000
H1038       H  0.78250521  0.52842956  0.88944790     0.06800
N1039       N  0.73162300  0.37225422  0.06226954    -0.27600
N1040       N  0.72483378  0.38015858  0.05090132    -0.35500
C1041       C  0.71628979  0.37042499  0.04218617     0.00700
C1042       C  0.71769836  0.35561789  0.04815938     0.06800
C1043       C  0.72754693  0.35710778  0.06089197    -0.06300
H1044       H  0.71035172  0.37371864  0.03158039     0.07400
H1045       H  0.73199593  0.34779555  0.06810450     0.08600
Cu1046     Cu  0.72951162  0.40297149  0.04477446     0.44200
Cu1047     Cu  0.74745913  0.38249350  0.07792672     0.42000
Cu1048     Cu  0.76420188  0.41730594  0.05969204     0.43900
N1049       N  0.74006924  0.42258553  0.03559965    -0.35000
N1050       N  0.75382510  0.42730462  0.04051493    -0.29200
C1051       C  0.75870466  0.43924866  0.03159966    -0.05300
C1052       C  0.74732997  0.44222727  0.02062630     0.06900
C1053       C  0.73564100  0.43151492  0.02353134     0.00700
H1054       H  0.76958089  0.44542783  0.03314152     0.08300
H1055       H  0.72495479  0.42999756  0.01704458     0.07400
N1056       N  0.76991525  0.40933290  0.08159382    -0.36400
N1057       N  0.76373917  0.39719752  0.08886813    -0.28600
C1058       C  0.76944552  0.39679921  0.10356175    -0.03800
C1059       C  0.77965546  0.40926117  0.10532413     0.04800
C1060       C  0.77959910  0.41683894  0.09121127     0.02900
H1061       H  0.76628075  0.38827866  0.11229988     0.08000
H1062       H  0.78583014  0.42739907  0.08826845     0.06800
N1063       N  0.77127521  0.54758436  0.08969970    -0.27600
N1064       N  0.77811369  0.53698414  0.08088673    -0.35500
C1065       C  0.78714283  0.52788726  0.08972849     0.00700
C1066       C  0.78601653  0.53277161  0.10489631     0.06800
C1067       C  0.77581579  0.54527033  0.10459999    -0.06300
H1068       H  0.79323620  0.51771718  0.08556131     0.07400
H1069       H  0.77152849  0.55172120  0.11450231     0.08600
Cu1070     Cu  0.77284556  0.53189049  0.05813718     0.44200
Cu1071     Cu  0.75515879  0.56376115  0.08083361     0.42000
Cu1072     Cu  0.73860993  0.54866801  0.04517934     0.43900
N1073       N  0.76091211  0.52331153  0.03930548    -0.35000
N1074       N  0.74736662  0.52911097  0.03512850    -0.29200
C1075       C  0.74141670  0.52064617  0.02346682    -0.05300
C1076       C  0.75187522  0.50901637  0.02013134     0.06900
C1077       C  0.76413616  0.51099158  0.03031861     0.00700
H1078       H  0.73047921  0.52297708  0.01769866     0.08300
H1079       H  0.77441000  0.50382437  0.03137642     0.07400
N1080       N  0.73388604  0.57024429  0.05376986    -0.36400
N1081       N  0.73962387  0.57634212  0.06667285    -0.28600
C1082       C  0.73397607  0.59096127  0.06808170    -0.03800
C1083       C  0.72434106  0.59388814  0.05539057     0.04800
C1084       C  0.72470192  0.58054401  0.04663949     0.02900
H1085       H  0.73661754  0.59879561  0.07755804     0.08000
H1086       H  0.71866879  0.57843905  0.03578638     0.06800
O1087       O  0.75879312  0.45907302  0.96947728    -0.73200
O1088       O  0.76264114  0.49122767  0.00242190    -0.74200
O1089       O  0.76051250  0.45866012  0.00261102    -0.62800
O1090       O  0.76070563  0.49189526  0.96948546    -0.71300
O1091       O  0.73495166  0.49320769  0.97098508    -0.70800
O1092       O  0.73473323  0.45995263  0.00371491    -0.62100
O1093       O  0.73687014  0.49295687  0.00364013    -0.74600
O1094       O  0.73300900  0.46015550  0.97096525    -0.73400
Cu1095     Cu  0.76157004  0.47513734  0.98591940     1.04600
Cu1096     Cu  0.73398172  0.47660892  0.98736401     1.04300
C1097       C  0.74537716  0.45450092  0.96506372     0.93000
C1098       C  0.75037308  0.49717381  0.00818049     0.92100
C1099       C  0.74755868  0.45416830  0.00841290     0.84200
C1100       C  0.74782052  0.49793082  0.96522238     0.90500
N1101       N  0.94372886  0.37722090  0.24842662    -0.27600
N1102       N  0.95568039  0.38458014  0.25477188    -0.35500
C1103       C  0.96346291  0.37467485  0.26399296     0.00700
C1104       C  0.95615394  0.36036902  0.26347840     0.06800
C1105       C  0.94364574  0.36235040  0.25350153    -0.06300
H1106       H  0.97406370  0.37751570  0.27016039     0.07400
H1107       H  0.93538400  0.35356144  0.24987842     0.08600
Cu1108     Cu  0.96239136  0.40720664  0.24968504     0.44200
Cu1109     Cu  0.92884706  0.38770843  0.23241620     0.42000
Cu1110     Cu  0.94622614  0.42275096  0.21536550     0.43900
N1111       N  0.96945322  0.42836234  0.24044874    -0.35000
N1112       N  0.96417031  0.43357059  0.22698514    -0.29200
C1113       C  0.97124027  0.44711256  0.22350805    -0.05300
C1114       C  0.98128695  0.45067539  0.23552419     0.06900
C1115       C  0.97989507  0.43857202  0.24608185     0.00700
H1116       H  0.96893961  0.45402080  0.21321758     0.08300
H1117       H  0.98623946  0.43712036  0.25686603     0.07400
N1118       N  0.92422181  0.41467741  0.21035436    -0.36400
N1119       N  0.91746191  0.40242014  0.21685738    -0.28600
C1120       C  0.90223591  0.40249623  0.21311150    -0.03800
C1121       C  0.89944261  0.41543871  0.20390637     0.04800
C1122       C  0.91360591  0.42280148  0.20235335     0.02900
H1123       H  0.89368597  0.39438495  0.21760752     0.08000
H1124       H  0.91578354  0.43394966  0.19686724     0.06800
N1125       N  0.93759990  0.58901879  0.22022102    -0.27600
N1126       N  0.95241322  0.58499700  0.21963407    -0.35500
C1127       C  0.96117957  0.59646954  0.22556217     0.00700
C1128       C  0.95155822  0.60833578  0.23035460     0.06800
C1129       C  0.93661530  0.60327954  0.22672605    -0.06300
H1130       H  0.97348475  0.59545002  0.22798676     0.07400
H1131       H  0.92582790  0.60888837  0.22989369     0.08600
Cu1132     Cu  0.96001303  0.56247982  0.21684839     0.44200
Cu1133     Cu  0.91979434  0.57305078  0.21531015     0.42000
Cu1134     Cu  0.93140967  0.53633404  0.23206182     0.43900
N1135       N  0.96523586  0.54059428  0.22514434    -0.35000
N1136       N  0.95496293  0.53161690  0.23231662    -0.29200
C1137       C  0.96211712  0.51869462  0.23745453    -0.05300
C1138       C  0.97755229  0.51964495  0.23314849     0.06900
C1139       C  0.97915759  0.53358613  0.22531595     0.00700
H1140       H  0.95635300  0.50900670  0.24313671     0.08300
H1141       H  0.98966675  0.53834032  0.22022380     0.07400
N1142       N  0.91040629  0.53973531  0.22088297    -0.36400
N1143       N  0.90658433  0.55259602  0.21333563    -0.28600
C1144       C  0.89442289  0.54939347  0.20388910    -0.03800
C1145       C  0.89044234  0.53378619  0.20571073     0.04800
C1146       C  0.90071060  0.52821306  0.21675707     0.02900
H1147       H  0.88955080  0.55750005  0.19557641     0.08000
H1148       H  0.90198823  0.51623231  0.22043016     0.06800
N1149       N  0.08399449  0.38126672  0.24929471    -0.27600
N1150       N  0.07152997  0.38770923  0.25565155    -0.35500
C1151       C  0.06280548  0.37666238  0.26244306     0.00700
C1152       C  0.06987264  0.36246936  0.26035896     0.06800
C1153       C  0.08335049  0.36573476  0.25198095    -0.06300
H1154       H  0.05182471  0.37877924  0.26820811     0.07400
H1155       H  0.09186989  0.35743800  0.24793804     0.08600
Cu1156     Cu  0.06500767  0.41083224  0.25437562     0.44200
Cu1157     Cu  0.10111917  0.39422175  0.23713852     0.42000
Cu1158     Cu  0.08714213  0.43292232  0.22861098     0.43900
N1159       N  0.05857236  0.43311349  0.24800505    -0.35000
N1160       N  0.06660426  0.44085307  0.23742044    -0.29200
C1161       C  0.05931463  0.45416518  0.23396880    -0.05300
C1162       C  0.04614406  0.45497554  0.24303462     0.06900
C1163       C  0.04593141  0.44146757  0.25184910     0.00700
H1164       H  0.06323172  0.46252855  0.22536427     0.08300
H1165       H  0.03686471  0.43760249  0.25972312     0.07400
N1166       N  0.10933512  0.42585098  0.22403519    -0.36400
N1167       N  0.11498789  0.41183418  0.22685238    -0.28600
C1168       C  0.13010829  0.41177704  0.22242976    -0.03800
C1169       C  0.13391775  0.42653624  0.21680480     0.04800
C1170       C  0.12043751  0.43501490  0.21801736     0.02900
H1171       H  0.13772582  0.40181654  0.22322159     0.08000
H1172       H  0.11874919  0.44701671  0.21458323     0.06800
N1173       N  0.09074693  0.58700674  0.25759411    -0.27600
N1174       N  0.08005491  0.57951893  0.26581734    -0.35500
C1175       C  0.07140508  0.58979666  0.27368073     0.00700
C1176       C  0.07648208  0.60460664  0.27015345     0.06800
C1177       C  0.08883794  0.60245388  0.25990010    -0.06300
H1178       H  0.06070190  0.58684565  0.27963856     0.07400
H1179       H  0.09479212  0.61143023  0.25333164     0.08600
Cu1180     Cu  0.07227129  0.55730349  0.26120688     0.44200
Cu1181     Cu  0.10468192  0.57564521  0.24092360     0.42000
Cu1182     Cu  0.07865656  0.55098786  0.22064192     0.43900
N1183       N  0.05971179  0.54123503  0.24852148    -0.35000
N1184       N  0.06154441  0.53971787  0.23332430    -0.29200
C1185       C  0.05190721  0.52858545  0.22814339    -0.05300
C1186       C  0.04353374  0.52286800  0.24065124     0.06900
C1187       C  0.04868693  0.53118892  0.25342425     0.00700
H1188       H  0.05140666  0.52459750  0.21620926     0.08300
H1189       H  0.04487218  0.52992840  0.26537107     0.07400
N1190       N  0.10153111  0.55380116  0.21394286    -0.36400
N1191       N  0.11192457  0.56103166  0.22263986    -0.28600
C1192       C  0.12622385  0.55605790  0.21839167    -0.03800
C1193       C  0.12464408  0.54527744  0.20634353     0.04800
C1194       C  0.10879029  0.54460375  0.20366336     0.02900
H1195       H  0.13685700  0.55916004  0.22435824     0.08000
H1196       H  0.10280343  0.53678810  0.19583286     0.06800
O1197       O  0.99518562  0.46963701  0.24992341    -0.73200
O1198       O  0.02559968  0.50522402  0.25259624    -0.74200
O1199       O  0.99274134  0.50270183  0.24869117    -0.62800
O1200       O  0.02738485  0.47194470  0.25386502    -0.71300
O1201       O  0.03014319  0.47139941  0.22812708    -0.70800
O1202       O  0.99671361  0.50296495  0.22310793    -0.62100
O1203       O  0.02897733  0.50406918  0.22698122    -0.74600
O1204       O  0.99749733  0.46993139  0.22415073    -0.73400
Cu1205     Cu  0.01010144  0.48744973  0.25220698     1.04600
Cu1206     Cu  0.01341746  0.48705583  0.22471386     1.04300
C1207       C  0.99172617  0.46410951  0.23657909     0.93000
C1208       C  0.03214743  0.51014678  0.24013522     0.92100
C1209       C  0.98950020  0.50782726  0.23510614     0.84200
C1210       C  0.03399221  0.46666378  0.24167641     0.90500
N1211       N  0.90473957  0.21266015  0.40238830    -0.27600
N1212       N  0.91293079  0.20515330  0.41303019    -0.35500
C1213       C  0.90327610  0.19743152  0.42256912     0.00700
C1214       C  0.88817625  0.20053190  0.41817387     0.06800
C1215       C  0.88948596  0.21010412  0.40518182    -0.06300
H1216       H  0.90689840  0.19181319  0.43325036     0.07400
H1217       H  0.88010906  0.21602266  0.39925259     0.08600
Cu1218     Cu  0.93522353  0.21103979  0.41947472     0.44200
Cu1219     Cu  0.91506726  0.22851299  0.38701548     0.42000
Cu1220     Cu  0.94324479  0.25011343  0.40951974     0.43900
N1221       N  0.95018466  0.22485062  0.43216926    -0.35000
N1222       N  0.95236052  0.23977002  0.42912919    -0.29200
C1223       C  0.96213114  0.24581620  0.43974903    -0.05300
C1224       C  0.96618471  0.23406742  0.44997295     0.05700
C1225       C  0.95839207  0.22095902  0.44486140     0.00700
H1226       H  0.96636141  0.25768902  0.43969256     0.08300
H1227       H  0.95870879  0.20942151  0.44994213     0.07400
N1228       N  0.94025985  0.25277948  0.38589409    -0.36400
N1229       N  0.93082910  0.24428174  0.37718326    -0.28600
C1230       C  0.93502525  0.24605825  0.36212019    -0.03800
C1231       C  0.94766642  0.25612841  0.36152735     0.04800
C1232       C  0.95050128  0.26020727  0.37676024     0.02900
H1233       H  0.93016236  0.23951518  0.35253414     0.08000
H1234       H  0.96039664  0.26674717  0.38103492     0.06800
N1235       N  0.88825350  0.24124633  0.55306137    -0.27600
N1236       N  0.89311488  0.24203052  0.53846914    -0.35500
C1237       C  0.88189473  0.23668892  0.52906029     0.00700
C1238       C  0.86937965  0.23212810  0.53804580     0.06800
C1239       C  0.87373605  0.23527409  0.55326308    -0.06300
H1240       H  0.88343345  0.23451371  0.51674825     0.07400
H1241       H  0.86747862  0.23205146  0.56372450     0.08600
Cu1242     Cu  0.91602356  0.24492390  0.53175995     0.44200
Cu1243     Cu  0.90309095  0.24472531  0.57181293     0.42000
Cu1244     Cu  0.94050582  0.22888855  0.56068254     0.43900
N1245       N  0.93887532  0.23892005  0.52742436    -0.35000
N1246       N  0.94742115  0.23143338  0.53777968    -0.29200
C1247       C  0.96143767  0.22838297  0.53157079    -0.05300
C1248       C  0.96171016  0.23442601  0.51667183     0.06900
C1249       C  0.94727854  0.24107099  0.51439090     0.00700
H1250       H  0.97097642  0.22297201  0.53773952     0.08300
H1251       H  0.94317685  0.24696815  0.50403568     0.07400
N1252       N  0.93571640  0.23803771  0.58236742    -0.36400
N1253       N  0.92259889  0.24511188  0.58607015    -0.28600
C1254       C  0.92498271  0.25369124  0.59895821    -0.03800
C1255       C  0.94033123  0.25188879  0.60352184     0.04800
C1256       C  0.94666059  0.24168613  0.59287749     0.02900
H1257       H  0.91659216  0.26166499  0.60383871     0.08000
H1258       H  0.95878312  0.23853360  0.59183543     0.06800
N1259       N  0.10397864  0.22136585  0.42244911    -0.27600
N1260       N  0.09946926  0.22844657  0.43531231    -0.35500
C1261       C  0.10816049  0.22341983  0.44728075     0.00700
C1262       C  0.11840516  0.21228745  0.44185958     0.06800
C1263       C  0.11547358  0.21135978  0.42599998    -0.06300
H1264       H  0.10630522  0.22674080  0.45927417     0.07400
H1265       H  0.12061784  0.20331662  0.41782982     0.08600
Cu1266     Cu  0.07856299  0.24005916  0.43745766     0.44200
Cu1267     Cu  0.09260190  0.22420682  0.40130021     0.42000
Cu1268     Cu  0.05184826  0.22476349  0.40932154     0.43900
N1269       N  0.05482005  0.23884623  0.44104936    -0.35000
N1270       N  0.04535016  0.23150633  0.43139749    -0.29200
C1271       C  0.03139251  0.22977265  0.43821062    -0.05300
C1272       C  0.03212647  0.23651940  0.45274646     0.06900
C1273       C  0.04706740  0.24222525  0.45420103     0.00700
H1274       H  0.02151808  0.22392302  0.43302351     0.08300
H1275       H  0.05223463  0.24740305  0.46445192     0.07400
N1276       N  0.06092754  0.22784475  0.38732918    -0.36400
N1277       N  0.07598531  0.22860525  0.38432065    -0.28600
C1278       C  0.07800104  0.23471595  0.36999556    -0.03800
C1279       C  0.06346693  0.23785590  0.36378761     0.04800
C1280       C  0.05297239  0.23331164  0.37506817     0.02900
H1281       H  0.08914492  0.23790390  0.36505769     0.08000
H1282       H  0.04057677  0.23544973  0.37504740     0.06800
N1283       N  0.09492456  0.21651870  0.56884900    -0.27600
N1284       N  0.08814618  0.20973029  0.55679291    -0.35500
C1285       C  0.09838080  0.20022948  0.54983646     0.00700
C1286       C  0.11230081  0.20100239  0.55778949     0.06800
C1287       C  0.10975488  0.21148888  0.56975498    -0.06300
H1288       H  0.09628119  0.19426819  0.53895375     0.07400
H1289       H  0.11835330  0.21599393  0.57776482     0.08600
Cu1290     Cu  0.06679465  0.21603970  0.54754979     0.44200
Cu1291     Cu  0.08444052  0.23420582  0.58190698     0.42000
Cu1292     Cu  0.05389016  0.25321875  0.56008992     0.43900
N1293       N  0.04872140  0.22782325  0.53680544    -0.35000
N1294       N  0.04453749  0.24200447  0.54093974    -0.29200
C1295       C  0.03320946  0.24700094  0.53136916    -0.05300
C1296       C  0.03007290  0.23533934  0.52075935     0.06900
C1297       C  0.04009034  0.22333519  0.52454939     0.00700
H1298       H  0.02750574  0.25817028  0.53225490     0.08300
H1299       H  0.04118684  0.21225608  0.51869280     0.07400
N1300       N  0.06085423  0.26011484  0.58209626    -0.36400
N1301       N  0.07136825  0.25281659  0.59062524    -0.28600
C1302       C  0.07052971  0.25824764  0.60535136    -0.03800
C1303       C  0.05906550  0.26960105  0.60597820     0.04800
C1304       C  0.05324448  0.27038683  0.59102175     0.02900
H1305       H  0.07675913  0.25334312  0.61513119     0.08000
H1306       H  0.04300535  0.27668400  0.58733708     0.06800
O1307       O  0.01436138  0.22307327  0.46892814    -0.73200
O1308       O  0.98143185  0.22197741  0.50203854    -0.74200
O1309       O  0.98172044  0.22209485  0.46912374    -0.62800
O1310       O  0.01445318  0.22261121  0.50198593    -0.71300
O1311       O  0.01250496  0.24831533  0.50365014    -0.70800
O1312       O  0.98254593  0.24789490  0.46754475    -0.62100
O1313       O  0.97943497  0.24770233  0.50030327    -0.74600
O1314       O  0.01537516  0.24886221  0.47066547    -0.73400
Cu1315     Cu  0.99803066  0.22154052  0.48554930     1.04600
Cu1316     Cu  0.99746308  0.24914065  0.48558839     1.04300
C1317       C  0.02009622  0.23614320  0.46470538     0.93000
C1318       C  0.97484904  0.23470137  0.50588999     0.92100
C1319       C  0.97728437  0.23479157  0.46285092     0.84200
C1320       C  0.01846584  0.23546834  0.50822096     0.90500
O1321       O  0.03168452  0.29084553  0.32497260    -0.73200
O1322       O  0.99923584  0.31723349  0.30470875    -0.74200
O1323       O  0.99906109  0.29195503  0.32583693    -0.62800
O1324       O  0.03219556  0.31650882  0.30360287    -0.71300
O1325       O  0.03027416  0.30056453  0.28342499    -0.70800
O1326       O  0.99858137  0.27466567  0.30665732    -0.62100
O1327       O  0.99709198  0.30010433  0.28577325    -0.74600
O1328       O  0.03165354  0.27489936  0.30485548    -0.73400
Cu1329     Cu  0.01566908  0.30469892  0.31544232     1.04600
Cu1330     Cu  0.01445246  0.28698755  0.29445944     1.04300
C1331       C  0.03657007  0.27846842  0.31842419     0.93000
C1332       C  0.99255670  0.31266063  0.29225099     0.92100
C1333       C  0.99364203  0.27950902  0.31979797     0.84200
C1334       C  0.03602168  0.31275965  0.28973357     0.90500
O1335       O  0.79944516  0.16634221  0.49584344    -0.73200
O1336       O  0.82660528  0.18682906  0.46295717    -0.74200
O1337       O  0.80547300  0.16152871  0.46336713    -0.62800
O1338       O  0.82050949  0.19203842  0.49536544    -0.71300
O1339       O  0.84005560  0.17630885  0.50089581    -0.70800
O1340       O  0.82435989  0.14532278  0.46998576    -0.62100
O1341       O  0.84552175  0.17036992  0.46906099    -0.74600
O1342       O  0.81881341  0.15073513  0.50182182    -0.73400
Cu1343     Cu  0.81229883  0.17726073  0.47920832     1.04600
Cu1344     Cu  0.83281591  0.16016802  0.48570770     1.04300
C1345       C  0.80479428  0.15505860  0.50395990     0.93000
C1346       C  0.84034348  0.18157711  0.46080938     0.92100
C1347       C  0.81268962  0.14870565  0.46146391     0.84200
C1348       C  0.83287653  0.18912374  0.50303761     0.90500
O1349       O  0.19615942  0.15935970  0.48150514    -0.73200
O1350       O  0.17466489  0.17956540  0.51833084    -0.74200
O1351       O  0.19961360  0.15766402  0.51480201    -0.62800
O1352       O  0.17193225  0.18140249  0.48551154    -0.71300
O1353       O  0.15491936  0.16194230  0.48578602    -0.70800
O1354       O  0.18222593  0.13852338  0.51579574    -0.62100
O1355       O  0.15740422  0.16036302  0.51840569    -0.74600
O1356       O  0.17921416  0.14000699  0.48297374    -0.73400
Cu1357     Cu  0.18625777  0.17014485  0.50006715     1.04600
Cu1358     Cu  0.16790712  0.14952446  0.50080710     1.04300
C1359       C  0.19079567  0.14648712  0.47626169     0.93000
C1360       C  0.16215398  0.17341326  0.52365263     0.92100
C1361       C  0.19530102  0.14434908  0.51987154     0.84200
C1362       C  0.15904536  0.17547596  0.48109615     0.90500
O1363       O  0.82789805  0.48387749  0.14003470    -0.73200
O1364       O  0.85260204  0.45209103  0.16340021    -0.74200
O1365       O  0.82782374  0.45110244  0.14153605    -0.62800
O1366       O  0.85275017  0.48491126  0.16143535    -0.71300
O1367       O  0.83611126  0.48631684  0.18108468    -0.70800
O1368       O  0.81123280  0.45126062  0.16110210    -0.62100
O1369       O  0.83604811  0.45334291  0.18320240    -0.74600
O1370       O  0.81083500  0.48482776  0.15936973    -0.73400
Cu1371     Cu  0.84079051  0.46792840  0.15094953     1.04600
Cu1372     Cu  0.82287488  0.46894647  0.17185310     1.04300
C1373       C  0.81562195  0.48959621  0.14608966     0.93000
C1374       C  0.84850309  0.44805448  0.17713797     0.92100
C1375       C  0.81562335  0.44564710  0.14801538     0.84200
C1376       C  0.84869455  0.49081228  0.17443294     0.90500
O1377       O  0.20626972  0.50410617  0.15898163    -0.73200
O1378       O  0.18947579  0.46896179  0.18522851    -0.74200
O1379       O  0.21233978  0.47126938  0.16079326    -0.62800
O1380       O  0.18342184  0.50150007  0.18294305    -0.71300
O1381       O  0.16518591  0.49657760  0.16535622    -0.70800
O1382       O  0.19420287  0.46762618  0.14312670    -0.62100
O1383       O  0.17137196  0.46441418  0.16745962    -0.74600
O1384       O  0.18773838  0.49969980  0.14158382    -0.73400
Cu1385     Cu  0.19857101  0.48656845  0.17259782     1.04600
Cu1386     Cu  0.17906895  0.48185590  0.15377895     1.04300
C1387       C  0.19942083  0.50760813  0.14625449     0.93000
C1388       C  0.17736818  0.46155743  0.18077685     0.92100
C1389       C  0.20788629  0.46481150  0.14812730     0.84200
C1390       C  0.16968401  0.50366368  0.17761073     0.90500
O1391       O  0.68309598  0.26757836  0.96961500    -0.73200
O1392       O  0.70099161  0.29506249  0.00369534    -0.74200
O1393       O  0.68390978  0.26642660  0.00292715    -0.62800
O1394       O  0.70059197  0.29583917  0.97004803    -0.71300
O1395       O  0.67908451  0.30967566  0.97129705    -0.70800
O1396       O  0.66215923  0.28012778  0.00355576    -0.62100
O1397       O  0.67930438  0.30861458  0.00402221    -0.74600
O1398       O  0.66153598  0.28169843  0.97068470    -0.73400
Cu1399     Cu  0.69296140  0.28075526  0.98657397     1.04600
Cu1400     Cu  0.66979728  0.29543785  0.98744579     1.04300
C1401       C  0.66932067  0.27054155  0.96485119     0.93000
C1402       C  0.69302247  0.30639663  0.00913212     0.92100
C1403       C  0.67023630  0.26856429  0.00829865     0.84200
C1404       C  0.69251510  0.30740888  0.96536742     0.90500
O1405       O  0.78793003  0.49805289  0.81157890    -0.73200
O1406       O  0.80967044  0.46594241  0.78469548    -0.74200
O1407       O  0.79039858  0.46468030  0.81137538    -0.62800
O1408       O  0.80751636  0.49921925  0.78465275    -0.71300
O1409       O  0.82890832  0.49929987  0.79882036    -0.70800
O1410       O  0.80991791  0.46743415  0.82773210    -0.62100
O1411       O  0.82954501  0.46621300  0.80115294    -0.74600
O1412       O  0.80934016  0.50062426  0.82573241    -0.73400
Cu1413     Cu  0.79814208  0.48198464  0.79756142     1.04600
Cu1414     Cu  0.82014398  0.48349930  0.81388459     1.04300
C1415       C  0.79528425  0.50444655  0.82284300     0.93000
C1416       C  0.82288669  0.46072231  0.78904154     0.92100
C1417       C  0.79735307  0.46048652  0.82381807     0.84200
C1418       C  0.82122666  0.50438970  0.78713287     0.90500
O1419       O  0.97379615  0.30451775  0.68515944    -0.73200
O1420       O  0.01224811  0.28902918  0.66347453    -0.74200
O1421       O  0.00607523  0.31047139  0.68858945    -0.62800
O1422       O  0.97992292  0.28369933  0.66004018    -0.71300
O1423       O  0.97795612  0.30363260  0.64369977    -0.70800
O1424       O  0.00527637  0.32934241  0.67100449    -0.62100
O1425       O  0.01040526  0.30801397  0.64604429    -0.74600
O1426       O  0.97286013  0.32448392  0.66881876    -0.73400
Cu1427     Cu  0.99309277  0.29624016  0.67491421     1.04600
Cu1428     Cu  0.99158348  0.31703600  0.65682795     1.04300
C1429       C  0.96753539  0.31722594  0.68071960     0.93000
C1430       C  0.01699094  0.29561449  0.65097404     0.92100
C1431       C  0.00955713  0.32434156  0.68432838     0.84200
C1432       C  0.97494293  0.28952761  0.64726853     0.90500
O1433       O  0.18994912  0.48207407  0.80624451    -0.73200
O1434       O  0.16030501  0.51399199  0.78900219    -0.74200
O1435       O  0.18485585  0.51473095  0.81140415    -0.62800
O1436       O  0.16521324  0.48118720  0.78420747    -0.71300
O1437       O  0.14840001  0.47654575  0.80293839    -0.70800
O1438       O  0.16789955  0.50886930  0.83003577    -0.62100
O1439       O  0.14355931  0.50860665  0.80790445    -0.74600
O1440       O  0.17306793  0.47667407  0.82496203    -0.73400
Cu1441     Cu  0.17567479  0.49822818  0.79701940     1.04600
Cu1442     Cu  0.15768177  0.49249767  0.81706387     1.04300
C1443       C  0.18617655  0.47426716  0.81835709     0.93000
C1444       C  0.14726552  0.51634316  0.79573698     0.92100
C1445       C  0.17943984  0.51685617  0.82513051     0.84200
C1446       C  0.15361012  0.47337789  0.78942343     0.90500
O1447       O  0.33516777  0.29787690  0.98556469    -0.73200
O1448       O  0.31259499  0.32425501  0.95375968    -0.74200
O1449       O  0.33612383  0.30111141  0.95224144    -0.62800
O1450       O  0.31155083  0.32152441  0.98663907    -0.71300
O1451       O  0.32987099  0.33958304  0.98857039    -0.70800
O1452       O  0.35457475  0.31863913  0.95501477    -0.62100
O1453       O  0.33124122  0.34205819  0.95559985    -0.74600
O1454       O  0.35313593  0.31628914  0.98791859    -0.73400
Cu1455     Cu  0.32325090  0.31050690  0.96951544     1.04600
Cu1456     Cu  0.34282830  0.32973824  0.97185733     1.04300
C1457       C  0.34766751  0.30300647  0.99182376     0.93000
C1458       C  0.31843975  0.33732942  0.94967338     0.92100
C1459       C  0.34927379  0.30665987  0.94801909     0.84200
C1460       C  0.31665446  0.33412942  0.99269256     0.90500
O1461       O  0.51810303  0.13746458  0.79331652    -0.73200
O1462       O  0.48668061  0.16249686  0.81689792    -0.74200
O1463       O  0.48546392  0.13995096  0.79254534    -0.62800
O1464       O  0.51967616  0.16006111  0.81717925    -0.71300
O1465       O  0.52239733  0.17844496  0.79932707    -0.70800
O1466       O  0.48665466  0.15925033  0.77551851    -0.62100
O1467       O  0.48912010  0.18186729  0.79990683    -0.74600
O1468       O  0.51975254  0.15596529  0.77527927    -0.73400
Cu1469     Cu  0.50237628  0.14940238  0.80561395     1.04600
Cu1470     Cu  0.50448322  0.16958217  0.78689824     1.04300
C1471       C  0.52376884  0.14265002  0.78057815     0.93000
C1472       C  0.48310724  0.17616715  0.81230921     0.92100
C1473       C  0.48080512  0.14625525  0.77989722     0.84200
C1474       C  0.52688084  0.17204468  0.81198701     0.90500
O1475       O  0.50624076  0.16185567  0.18089359    -0.73200
O1476       O  0.47633123  0.18420088  0.15258956    -0.74200
O1477       O  0.47351196  0.16639471  0.18055491    -0.62800
O1478       O  0.50945436  0.17939597  0.15338822    -0.71300
O1479       O  0.50623730  0.15837824  0.13900403    -0.70800
O1480       O  0.47079103  0.14521806  0.16612697    -0.62100
O1481       O  0.47393470  0.16309147  0.13823043    -0.74600
O1482       O  0.50324191  0.14062555  0.16646207    -0.73400
Cu1483     Cu  0.49142604  0.17376636  0.16731209     1.04600
Cu1484     Cu  0.48838976  0.15111965  0.15197829     1.04300
C1485       C  0.50946113  0.14767308  0.17795648     0.93000
C1486       C  0.47053094  0.17729910  0.14075280     0.92100
C1487       C  0.46676639  0.15342266  0.17784175     0.84200
C1488       C  0.51380468  0.17077704  0.14210896     0.90500
O1489       O  0.34927510  0.95645547  0.66281717    -0.73200
O1490       O  0.32319621  0.99181544  0.64745157    -0.74200
O1491       O  0.34803773  0.98871258  0.66849358    -0.62800
O1492       O  0.32451060  0.95941338  0.64133260    -0.71300
O1493       O  0.30711553  0.95521155  0.66000881    -0.70800
O1494       O  0.33167613  0.98426168  0.68799118    -0.62100
O1495       O  0.30636042  0.98811538  0.66668744    -0.74600
O1496       O  0.33212774  0.95169106  0.68149373    -0.73400
Cu1497     Cu  0.33676156  0.97422813  0.65436998     1.04600
Cu1498     Cu  0.31865803  0.96966925  0.67472651     1.04300
C1499       C  0.34493409  0.94851675  0.67465318     0.93000
C1500       C  0.31090523  0.99582740  0.65475751     0.92100
C1501       C  0.34393502  0.99083962  0.68259338     0.84200
C1502       C  0.31218770  0.95270182  0.64622958     0.90500
O1503       O  0.49070654  0.78033063  0.81037589    -0.73200
O1504       O  0.52692281  0.79956516  0.78698709    -0.74200
O1505       O  0.52384295  0.77626687  0.81055650    -0.62800
O1506       O  0.49404281  0.80361964  0.78684470    -0.71300
O1507       O  0.49678559  0.82175552  0.80501136    -0.70800
O1508       O  0.52525384  0.79381982  0.82914074    -0.62100
O1509       O  0.52928345  0.81706278  0.80575724    -0.74600
O1510       O  0.49294044  0.79867896  0.82830376    -0.73400
Cu1511     Cu  0.50881126  0.78927498  0.79805126     1.04600
Cu1512     Cu  0.51116287  0.80842546  0.81765722     1.04300
C1513       C  0.48607376  0.78659890  0.82305005     0.93000
C1514       C  0.53367969  0.81153659  0.79268676     0.92100
C1515       C  0.52911884  0.78054299  0.82378291     0.84200
C1516       C  0.49092896  0.81713299  0.79215745     0.90500
O1517       O  0.31838652  0.68986743  0.96440199    -0.73200
O1518       O  0.29902644  0.66718708  0.00112059    -0.74200
O1519       O  0.32012041  0.69255930  0.99784344    -0.62800
O1520       O  0.29680050  0.66472766  0.96804908    -0.71300
O1521       O  0.31675363  0.64837729  0.96775793    -0.70800
O1522       O  0.33899703  0.67502194  0.99893764    -0.62100
O1523       O  0.31790360  0.64990436  0.00009443    -0.74600
O1524       O  0.33804836  0.67338080  0.96595232    -0.73400
Cu1525     Cu  0.30788383  0.67925326  0.98283162     1.04600
Cu1526     Cu  0.32862270  0.66120533  0.98317341     1.04300
C1527       C  0.33145438  0.68490498  0.95932926     0.93000
C1528       C  0.30523338  0.65459536  0.00607951     0.92100
C1529       C  0.33304813  0.68785505  0.00343228     0.84200
C1530       C  0.30305537  0.65208098  0.96343112     0.90500
O1531       O  0.47669553  0.81251325  0.14532783    -0.73200
O1532       O  0.51276600  0.83286400  0.16648096    -0.74200
O1533       O  0.50922228  0.80912562  0.14375502    -0.62800
O1534       O  0.48020533  0.83626884  0.16808481    -0.71300
O1535       O  0.48027074  0.81893967  0.18722540    -0.70800
O1536       O  0.50799679  0.79097218  0.16217986    -0.62100
O1537       O  0.51277884  0.81465380  0.18475939    -0.74600
O1538       O  0.47522005  0.79521257  0.16444771    -0.73400
Cu1539     Cu  0.49474669  0.82329172  0.15526488     1.04600
Cu1540     Cu  0.49398955  0.80430106  0.17530565     1.04300
C1541       C  0.47031984  0.80052580  0.15142458     0.93000
C1542       C  0.51845418  0.82715552  0.17898266     0.92100
C1543       C  0.51308514  0.79578035  0.14904077     0.84200
C1544       C  0.47600354  0.83208680  0.18173925     0.90500
O1545       O  0.31407534  0.97239435  0.33371395    -0.73200
O1546       O  0.33899411  0.00512741  0.31103591    -0.74200
O1547       O  0.31587027  0.00540358  0.33452792    -0.62800
O1548       O  0.33757817  0.97264970  0.31002034    -0.71300
O1549       O  0.31866508  0.97322425  0.29265962    -0.70800
O1550       O  0.29797508  0.00820223  0.31630314    -0.62100
O1551       O  0.32096177  0.00627850  0.29257020    -0.74600
O1552       O  0.29511062  0.97488541  0.31639368    -0.73400
Cu1553     Cu  0.32719170  0.98879036  0.32297159     1.04600
Cu1554     Cu  0.30748839  0.99062237  0.30385385     1.04300
C1555       C  0.30048269  0.96877841  0.32886682     0.93000
C1556       C  0.33404331  0.01061738  0.29812940     0.92100
C1557       C  0.30393824  0.01247585  0.32924333     0.84200
C1558       C  0.33187983  0.96805918  0.29712019     0.90500
O1559       O  0.19807814  0.80260160  0.50155000    -0.73200
O1560       O  0.17605863  0.77629777  0.46934966    -0.74200
O1561       O  0.19622248  0.80289954  0.46805654    -0.62800
O1562       O  0.17755248  0.77629036  0.50263328    -0.71300
O1563       O  0.15699958  0.79164753  0.50262325    -0.70800
O1564       O  0.17640674  0.81896973  0.47043083    -0.62100
O1565       O  0.15619436  0.79273118  0.46982887    -0.74600
O1566       O  0.17729521  0.81776538  0.50327365    -0.73400
Cu1567     Cu  0.18773575  0.78895982  0.48538306     1.04600
Cu1568     Cu  0.16606242  0.80579601  0.48659306     1.04300
C1569       C  0.19110540  0.81429606  0.50746765     0.93000
C1570       C  0.16265651  0.78047194  0.46451139     0.92100
C1571       C  0.18918208  0.81533080  0.46383882     0.84200
C1572       C  0.16401616  0.77964656  0.50780916     0.90500
O1573       O  0.01864214  0.64128262  0.29472966    -0.73200
O1574       O  0.98211893  0.66539652  0.31103627    -0.74200
O1575       O  0.98628630  0.64214947  0.28731524    -0.62800
O1576       O  0.01435909  0.66421794  0.31766207    -0.71300
O1577       O  0.01859878  0.68276559  0.30022991    -0.70800
O1578       O  0.99029999  0.66086660  0.27019561    -0.62100
O1579       O  0.98653619  0.68390841  0.29356374    -0.74600
O1580       O  0.02313250  0.65957205  0.27699804    -0.73400
Cu1581     Cu  0.00013460  0.65257224  0.30321782     1.04600
Cu1582     Cu  0.00476543  0.67234089  0.28456319     1.04300
C1583       C  0.02695956  0.64682682  0.28370080     0.93000
C1584       C  0.97902610  0.67881306  0.30537605     0.92100
C1585       C  0.98370193  0.64805179  0.27388017     0.84200
C1586       C  0.02076605  0.67710867  0.31381872     0.90500
O1587       O  0.83248916  0.79261359  0.45197400    -0.73200
O1588       O  0.80543877  0.81509951  0.48214008    -0.74200
O1589       O  0.82886140  0.79201600  0.48452684    -0.62800
O1590       O  0.80887824  0.81510887  0.44943573    -0.71300
O1591       O  0.79144384  0.79631988  0.44679830    -0.70800
O1592       O  0.81087752  0.77357137  0.48294207    -0.62100
O1593       O  0.78716169  0.79691721  0.48010138    -0.74600
O1594       O  0.81512826  0.77355738  0.44978067    -0.73400
Cu1595     Cu  0.81948107  0.80432106  0.46712095     1.04600
Cu1596     Cu  0.80047472  0.78441243  0.46487369     1.04300
C1597       C  0.82822529  0.77967919  0.44610005     0.93000
C1598       C  0.79205026  0.80980933  0.48578898     0.92100
C1599       C  0.82317101  0.77908198  0.48923954     0.84200
C1600       C  0.79722438  0.80927137  0.44227764     0.90500
O1601       O  0.68519700  0.00946856  0.32235250    -0.73200
O1602       O  0.65684510  0.97868468  0.30161875    -0.74200
O1603       O  0.68260454  0.97673581  0.32199056    -0.62800
O1604       O  0.65914964  0.01162745  0.30198040    -0.71300
O1605       O  0.67470494  0.01071261  0.28157520    -0.70800
O1606       O  0.69930223  0.97641428  0.30225511    -0.62100
O1607       O  0.67324806  0.97698522  0.28193139    -0.74600
O1608       O  0.70062753  0.00966149  0.30189320    -0.73400
Cu1609     Cu  0.67039916  0.99418970  0.31263724     1.04600
Cu1610     Cu  0.68749054  0.99342824  0.29114838     1.04300
C1611       C  0.69741175  0.01455838  0.31554186     0.93000
C1612       C  0.66078119  0.97245267  0.28873166     0.92100
C1613       C  0.69468369  0.97119919  0.31541996     0.84200
C1614       C  0.66316118  0.01684151  0.28863039     0.90500
O1615       O  0.96750601  0.67698273  0.64735207    -0.73200
O1616       O  0.00143802  0.65831494  0.67346316    -0.74200
O1617       O  0.00008982  0.68079068  0.64821092    -0.62800
O1618       O  0.96875346  0.65418696  0.67206494    -0.71300
O1619       O  0.97125557  0.63591036  0.65409787    -0.70800
O1620       O  0.00342696  0.66125559  0.63186066    -0.62100
O1621       O  0.00372954  0.63911054  0.65636664    -0.74600
O1622       O  0.97094469  0.65847605  0.62971114    -0.73400
Cu1623     Cu  0.98434843  0.66825006  0.66092532     1.04600
Cu1624     Cu  0.98742237  0.64806299  0.64245782     1.04300
C1625       C  0.96441171  0.67105585  0.63409185     0.93000
C1626       C  0.00753789  0.64546801  0.66923407     0.92100
C1627       C  0.00631312  0.67525696  0.63584674     0.84200
C1628       C  0.96537597  0.64061336  0.66688745     0.90500
O1629       O  0.67413656  0.96227702  0.62767744    -0.73200
O1630       O  0.65806765  0.99645019  0.65505614    -0.74200
O1631       O  0.67833399  0.99499061  0.62872380    -0.62800
O1632       O  0.65391386  0.96386715  0.65422076    -0.71300
O1633       O  0.67400400  0.96062848  0.66979223    -0.70800
O1634       O  0.69856018  0.99175060  0.64427533    -0.62100
O1635       O  0.67822034  0.99383543  0.67081422    -0.74600
O1636       O  0.69422087  0.95923782  0.64358192    -0.73400
Cu1637     Cu  0.66540287  0.97949658  0.64091910     1.04600
Cu1638     Cu  0.68690957  0.97627651  0.65771725     1.04300
C1639       C  0.68701411  0.95571285  0.63107006     0.93000
C1640       C  0.66546247  0.00058010  0.66726524     0.92100
C1641       C  0.69250822  0.99794734  0.63216211     0.84200
C1642       C  0.66002653  0.95720540  0.66603790     0.90500
O1643       O  0.65338585  0.65842942  0.98382706    -0.73200
O1644       O  0.67679860  0.63412187  0.01587960    -0.74200
O1645       O  0.65283322  0.65682415  0.01687343    -0.62800
O1646       O  0.67699746  0.63579853  0.98297957    -0.71300
O1647       O  0.69514920  0.65415325  0.98443951    -0.70800
O1648       O  0.67028826  0.67586617  0.01805700    -0.62100
O1649       O  0.69412141  0.65289942  0.01791191    -0.74600
O1650       O  0.67091059  0.67723107  0.98512989    -0.73400
Cu1651     Cu  0.66442036  0.64567504  0.99987294     1.04600
Cu1652     Cu  0.68329498  0.66568254  0.00139485     1.04300
C1653       C  0.65825492  0.67179491  0.97948796     0.93000
C1654       C  0.68908341  0.63956020  0.02220936     0.92100
C1655       C  0.65752167  0.66971386  0.02261490     0.84200
C1656       C  0.68990929  0.64156801  0.97841867     0.90500
C1657       C  0.02783717  0.27257780  0.63676821    -0.02200
C1658       C  0.02946096  0.28824929  0.64153603     0.07500
C1659       C  0.04232002  0.29702522  0.63616563    -0.02300
C1660       C  0.05277495  0.29055919  0.62527447    -0.02300
C1661       C  0.05053933  0.27525628  0.61984399     0.07700
C1662       C  0.03839671  0.26611620  0.62605889    -0.02500
Br1663     Br  0.03567810  0.24490824  0.61912393    -0.01000
Br1664     Br  0.01033432  0.26018438  0.64363285    -0.01100
Br1665     Br  0.07000081  0.30269512  0.61747495    -0.01000
Br1666     Br  0.04573789  0.31780645  0.64390704    -0.01000
C1667       C  0.13570226  0.20414823  0.54085511    -0.02200
C1668       C  0.12732777  0.19520407  0.55179192     0.07500
C1669       C  0.13219118  0.17998712  0.55530379    -0.02300
C1670       C  0.14475156  0.17334464  0.54716044    -0.02300
C1671       C  0.15221522  0.18174141  0.53507221     0.07700
C1672       C  0.14799985  0.19743515  0.53237451    -0.02500
Br1673     Br  0.15766422  0.20943098  0.51592844    -0.01000
Br1674     Br  0.12957090  0.22537099  0.53678381    -0.01100
Br1675     Br  0.15156024  0.15263120  0.55253006    -0.01000
Br1676     Br  0.12106318  0.16800777  0.57074694    -0.01000
C1677       C  0.04516016  0.25136339  0.32611963    -0.02200
C1678       C  0.04689547  0.26776618  0.32739607     0.07500
C1679       C  0.05649783  0.27382818  0.33937382    -0.02300
C1680       C  0.06258291  0.26392111  0.35091021    -0.02300
C1681       C  0.05960657  0.24781830  0.35032926     0.07700
C1682       C  0.05117376  0.24154089  0.33780335    -0.02500
Br1683     Br  0.04683261  0.21945991  0.33741432    -0.01000
Br1684     Br  0.03369259  0.24187641  0.30924061    -0.01100
Br1685     Br  0.07337319  0.27274602  0.36856496    -0.01000
Br1686     Br  0.06143996  0.29576792  0.34034188    -0.01000
C1687       C  0.12286162  0.19480236  0.46498374    -0.02200
C1688       C  0.12869695  0.20219105  0.45142124     0.07500
C1689       C  0.14451258  0.20027525  0.44738276    -0.02300
C1690       C  0.15437882  0.19125681  0.45688864    -0.02300
C1691       C  0.14865529  0.18451047  0.47076647     0.07700
C1692       C  0.13294088  0.18659028  0.47491692    -0.02500
Br1693     Br  0.12540065  0.17932101  0.49488516    -0.01000
Br1694     Br  0.10085657  0.19469237  0.46960263    -0.01100
Br1695     Br  0.17569855  0.18791922  0.45065674    -0.01000
Br1696     Br  0.15301807  0.21046196  0.42918956    -0.01000
C1697       C  0.94467287  0.26191276  0.63057389    -0.02200
C1698       C  0.94905098  0.26162115  0.61474950     0.07500
C1699       C  0.96180978  0.27071284  0.60963360    -0.02300
C1700       C  0.97050524  0.27943632  0.62038781    -0.02300
C1701       C  0.96601421  0.27986442  0.63619837     0.07700
C1702       C  0.95292097  0.27127744  0.64120537    -0.02500
Br1703     Br  0.94566713  0.27305494  0.66239732    -0.01000
Br1704     Br  0.92769621  0.24907502  0.63784452    -0.01100
Br1705     Br  0.98901708  0.29025824  0.61338502    -0.01000
Br1706     Br  0.96697993  0.27220490  0.58775099    -0.01000
C1707       C  0.85647899  0.20601125  0.53627780    -0.02200
C1708       C  0.85680285  0.22192382  0.53225603     0.07500
C1709       C  0.84718496  0.22742211  0.52021364    -0.02300
C1710       C  0.83895177  0.21687873  0.51075862    -0.02300
C1711       C  0.83935038  0.20072382  0.51414582     0.07700
C1712       C  0.84726849  0.19558368  0.52765152    -0.02500
Br1713     Br  0.84562879  0.17424836  0.53458698    -0.01000
Br1714     Br  0.86986352  0.19798551  0.55245599    -0.01100
Br1715     Br  0.82882587  0.22483167  0.49231015    -0.01000
Br1716     Br  0.84582112  0.24954718  0.51645285    -0.01000
C1717       C  0.97395002  0.25376570  0.34953577    -0.02200
C1718       C  0.95849182  0.25916780  0.34850204     0.07500
C1719       C  0.95427599  0.26938296  0.33638121    -0.02300
C1720       C  0.96569458  0.27493789  0.32597529    -0.02300
C1721       C  0.98140495  0.27090937  0.32818690     0.07700
C1722       C  0.98546996  0.25999544  0.33969907    -0.02500
Br1723     Br  0.00694071  0.25433403  0.34263705    -0.01000
Br1724     Br  0.97941932  0.23800372  0.36462387    -0.01100
Br1725     Br  0.96002176  0.28862771  0.30910188    -0.01000
Br1726     Br  0.93322700  0.27687520  0.33491969    -0.01000
C1727       C  0.87455816  0.20324094  0.44374168    -0.02200
C1728       C  0.87436485  0.19793269  0.42818205     0.07500
C1729       C  0.86164417  0.18903083  0.42286325    -0.02300
C1730       C  0.84952005  0.18501370  0.43322952    -0.02300
C1731       C  0.85081873  0.18869761  0.44917824     0.07700
C1732       C  0.86330605  0.19792423  0.45436223    -0.02500
Br1733     Br  0.86528807  0.20286641  0.47619277    -0.01000
Br1734     Br  0.88984920  0.21828503  0.45052016    -0.01100
Br1735     Br  0.83137287  0.17421985  0.42568713    -0.01000
Br1736     Br  0.86144408  0.18131906  0.40179774    -0.01000
C1737       C  0.04333190  0.63265534  0.26399925    -0.02200
C1738       C  0.04135139  0.63847205  0.27920212     0.07500
C1739       C  0.05269668  0.63523105  0.29063840    -0.02300
C1740       C  0.06499829  0.62495286  0.28735113    -0.02300
C1741       C  0.06656279  0.61851457  0.27236482     0.07700
C1742       C  0.05610741  0.62299683  0.26050310    -0.02500
Br1743     Br  0.05846999  0.61480850  0.23973922    -0.01000
Br1744     Br  0.02765673  0.63641641  0.24841687    -0.01100
Br1745     Br  0.07924602  0.61896127  0.30362453    -0.01000
Br1746     Br  0.05135035  0.64484318  0.31089640    -0.01000
C1747       C  0.14435301  0.50837228  0.19120485    -0.02200
C1748       C  0.15866779  0.51422733  0.18569003     0.07500
C1749       C  0.16206733  0.53020371  0.18740303    -0.02300
C1750       C  0.15096723  0.54037793  0.19398227    -0.02300
C1751       C  0.13663885  0.53453994  0.19968953     0.07700
C1752       C  0.13363918  0.51830701  0.19861606    -0.02500
Br1753     Br  0.11546701  0.50903098  0.20821117    -0.01000
Br1754     Br  0.13951901  0.48648365  0.18897800    -0.01100
Br1755     Br  0.15511439  0.56245525  0.19408210    -0.01000
Br1756     Br  0.18170030  0.53830697  0.18003547    -0.01000
C1757       C  0.06972626  0.33939352  0.27840380    -0.02200
C1758       C  0.06324178  0.34737511  0.26560514     0.07500
C1759       C  0.04874301  0.34252937  0.25964610    -0.02300
C1760       C  0.04029218  0.33057898  0.26706931    -0.02300
C1761       C  0.04622981  0.32332926  0.28056253     0.07700
C1762       C  0.06119385  0.32746501  0.28592889    -0.02500
Br1763     Br  0.06987477  0.31699085  0.30374782    -0.01000
Br1764     Br  0.08977702  0.34558778  0.28632051    -0.01100
Br1765     Br  0.01981788  0.32538051  0.25956629    -0.01000
Br1766     Br  0.04009458  0.35276830  0.24158240    -0.01000
C1767       C  0.16357702  0.43614951  0.18578598    -0.02200
C1768       C  0.16943287  0.45043334  0.19146466     0.07500
C1769       C  0.16591435  0.45492256  0.20691968    -0.02300
C1770       C  0.15558587  0.44589498  0.21596551    -0.02300
C1771       C  0.14842336  0.43256407  0.20960386     0.07700
C1772       C  0.15305430  0.42728305  0.19480362    -0.02500
Br1773     Br  0.14399261  0.40859180  0.18631084    -0.01000
Br1774     Br  0.16973272  0.42879895  0.16549997    -0.01100
Br1775     Br  0.15077477  0.45204522  0.23703839    -0.01000
Br1776     Br  0.17363284  0.47431890  0.21534902    -0.01000
C1777       C  0.95316347  0.62017179  0.25698268    -0.02200
C1778       C  0.95661811  0.62096309  0.24097315     0.07500
C1779       C  0.96721314  0.63222276  0.23554331    -0.02300
C1780       C  0.97535976  0.64180487  0.24609313    -0.02300
C1781       C  0.97331660  0.63982196  0.26244462     0.07700
C1782       C  0.96151162  0.62941182  0.26769520    -0.02500
Br1783     Br  0.95620838  0.62758380  0.28950447    -0.01000
Br1784     Br  0.93748041  0.60579975  0.26441800    -0.01100
Br1785     Br  0.98960708  0.65702031  0.23745257    -0.01000
Br1786     Br  0.97064254  0.63426086  0.21338457    -0.01000
C1787       C  0.87534896  0.49942744  0.18251084    -0.02200
C1788       C  0.85919267  0.50240455  0.18191788     0.07500
C1789       C  0.85347105  0.51654116  0.18804012    -0.02300
C1790       C  0.86372818  0.52724721  0.19523051    -0.02300
C1791       C  0.87979205  0.52400210  0.19614553     0.07700
C1792       C  0.88559259  0.51042065  0.18899743    -0.02500
Br1793     Br  0.90776464  0.50720485  0.18703136    -0.01000
Br1794     Br  0.88365493  0.47969763  0.17561588    -0.01100
Br1795     Br  0.85568243  0.54619879  0.20406849    -0.01000
Br1796     Br  0.83167344  0.52149712  0.18629224    -0.01000
C1797       C  0.96315245  0.34528450  0.28725763    -0.02200
C1798       C  0.96196352  0.34599214  0.27095091     0.07500
C1799       C  0.96790431  0.33374362  0.26189213    -0.02300
C1800       C  0.97658791  0.32175500  0.26896553    -0.02300
C1801       C  0.97996574  0.32239736  0.28516127     0.07700
C1802       C  0.97189941  0.33343593  0.29440292    -0.02500
Br1803     Br  0.97176476  0.33206771  0.31689794    -0.01000
Br1804     Br  0.95265908  0.36067711  0.29977773    -0.01100
Br1805     Br  0.98346350  0.30474185  0.25598796    -0.01000
Br1806     Br  0.96516961  0.33396638  0.23957318    -0.01000
C1807       C  0.87610540  0.41541065  0.18667199    -0.02200
C1808       C  0.88437053  0.42200872  0.19915719     0.07500
C1809       C  0.87906721  0.43589887  0.20605759    -0.02300
C1810       C  0.86626621  0.44380482  0.19967783    -0.02300
C1811       C  0.85890331  0.43791959  0.18625211     0.07700
C1812       C  0.86325396  0.42328900  0.18036567    -0.02500
Br1813     Br  0.85136426  0.41394359  0.16388957    -0.01000
Br1814     Br  0.88318617  0.39630566  0.17735242    -0.01100
Br1815     Br  0.85952278  0.46316181  0.20881308    -0.01000
Br1816     Br  0.88973028  0.44444445  0.22389683    -0.01000
C1817       C  0.69883137  0.60599946  0.04970455    -0.02200
C1818       C  0.71501330  0.60771322  0.05123592     0.07500
C1819       C  0.72228524  0.62136200  0.04583090    -0.02300
C1820       C  0.71368237  0.63257144  0.03742463    -0.02300
C1821       C  0.69764512  0.62993386  0.03406695     0.07700
C1822       C  0.69011397  0.61704509  0.04135552    -0.02500
Br1823     Br  0.66780843  0.61398233  0.04041470    -0.01000
Br1824     Br  0.68869018  0.58794111  0.05868538    -0.01100
Br1825     Br  0.72463506  0.65094523  0.03027627    -0.01000
Br1826     Br  0.74440585  0.62396415  0.04877113    -0.01000
C1827       C  0.78375006  0.51224220  0.12534064    -0.02200
C1828       C  0.79255439  0.52415685  0.11823699     0.07500
C1829       C  0.80851558  0.52555585  0.12153685    -0.02300
C1830       C  0.81580527  0.51476769  0.13145120    -0.02300
C1831       C  0.80727855  0.50209467  0.13764033     0.07700
C1832       C  0.79111004  0.50109869  0.13487096    -0.02500
Br1833     Br  0.77923427  0.48367709  0.14263800    -0.01000
Br1834     Br  0.76180153  0.51050752  0.12094028    -0.01100
Br1835     Br  0.83754475  0.51747657  0.13652441    -0.01000
Br1836     Br  0.82056815  0.54181355  0.11170487    -0.01000
C1837       C  0.69604502  0.33774063  0.04083940    -0.02200
C1838       C  0.71196662  0.34134891  0.04038302     0.07500
C1839       C  0.72188843  0.33284269  0.03058530    -0.02300
C1840       C  0.71597738  0.32066984  0.02127120    -0.02300
C1841       C  0.69972697  0.31750125  0.02089750     0.07700
C1842       C  0.68982993  0.32618311  0.03098130    -0.02500
Br1843     Br  0.66755742  0.32315001  0.03146243    -0.01000
Br1844     Br  0.68266299  0.34924952  0.05475510    -0.01100
Br1845     Br  0.73052489  0.30950800  0.00830615    -0.01000
Br1846     Br  0.74342989  0.33904411  0.02874220    -0.01000
C1847       C  0.81380761  0.42344842  0.12863590    -0.02200
C1848       C  0.80642312  0.43327338  0.13972799     0.07500
C1849       C  0.78999333  0.43218865  0.14140166    -0.02300
C1850       C  0.78115164  0.42321050  0.13083211    -0.02300
C1851       C  0.78855997  0.41465590  0.11904196     0.07700
C1852       C  0.80487055  0.41418805  0.11848588    -0.02500
Br1853     Br  0.81490155  0.40137345  0.10297872    -0.01000
Br1854     Br  0.83618317  0.42248928  0.12661225    -0.01100
Br1855     Br  0.75872138  0.42395338  0.13135733    -0.01000
Br1856     Br  0.77897000  0.44359899  0.15727597    -0.01000
C1857       C  0.70016765  0.62139480  0.94054303    -0.02200
C1858       C  0.71253194  0.61175611  0.94536662     0.07500
C1859       C  0.71852117  0.61337789  0.96061513    -0.02300
C1860       C  0.71169499  0.62390013  0.97114598    -0.02300
C1861       C  0.69894487  0.63303029  0.96651223     0.07700
C1862       C  0.69357098  0.63218172  0.95102389    -0.02500
Br1863     Br  0.67701607  0.64573262  0.94433133    -0.01000
Br1864     Br  0.69124099  0.61874228  0.92014032    -0.01100
Br1865     Br  0.71908487  0.62502294  0.99233410    -0.01000
Br1866     Br  0.73576271  0.60072568  0.96738904    -0.01000
C1867       C  0.77028629  0.51976763  0.85575811    -0.02200
C1868       C  0.77585782  0.53518507  0.85729157     0.07500
C1869       C  0.78640617  0.54107866  0.84615237    -0.02300
C1870       C  0.79209524  0.53132663  0.83420397    -0.02300
C1871       C  0.78731039  0.51561922  0.83334402     0.07700
C1872       C  0.77593839  0.51009599  0.84381527    -0.02500
Br1873     Br  0.76889836  0.48883895  0.84256048    -0.01000
Br1874     Br  0.75525355  0.51156591  0.87038495    -0.01100
Br1875     Br  0.80645449  0.53944838  0.81901609    -0.01000
Br1876     Br  0.79398967  0.56212537  0.84802877    -0.01000
C1877       C  0.69373430  0.33859980  0.93344633    -0.02200
C1878       C  0.70964871  0.34231982  0.93292443     0.07500
C1879       C  0.72024526  0.33349189  0.94172967    -0.02300
C1880       C  0.71488003  0.32153821  0.95174111    -0.02300
C1881       C  0.69866721  0.31845207  0.95321211     0.07700
C1882       C  0.68822664  0.32669052  0.94336581    -0.02500
Br1883     Br  0.66626555  0.32174510  0.94279889    -0.01000
Br1884     Br  0.67941248  0.35023574  0.92062405    -0.01100
Br1885     Br  0.73012893  0.31034533  0.96387465    -0.01000
Br1886     Br  0.74211556  0.33865056  0.94089943    -0.01000
C1887       C  0.76839910  0.43285921  0.84399901    -0.02200
C1888       C  0.77823682  0.42457656  0.85412135     0.07500
C1889       C  0.79442179  0.42686599  0.85319320    -0.02300
C1890       C  0.80073346  0.43843428  0.84335760    -0.02300
C1891       C  0.79083248  0.44753838  0.83369010     0.07700
C1892       C  0.77460753  0.44404498  0.83361686    -0.02500
Br1893     Br  0.76015460  0.45481527  0.82011036    -0.01000
Br1894     Br  0.74616030  0.42977275  0.84517031    -0.01100
Br1895     Br  0.82308819  0.44125207  0.84355860    -0.01000
Br1896     Br  0.80799218  0.41384733  0.86555383    -0.01000
C1897       C  0.02174612  0.61993983  0.70191048    -0.02200
C1898       C  0.03622704  0.61508200  0.69592997     0.07500
C1899       C  0.04209782  0.62188572  0.68218031    -0.02300
C1900       C  0.03324972  0.63307558  0.67412971    -0.02300
C1901       C  0.01836838  0.63715489  0.67957798     0.07700
C1902       C  0.01288503  0.63104806  0.69381524    -0.02500
Br1903     Br  0.99270985  0.63695551  0.70170545    -0.01000
Br1904     Br  0.01355093  0.61068360  0.72074169    -0.01100
Br1905     Br  0.04137545  0.64289727  0.65558959    -0.01000
Br1906     Br  0.06152594  0.61481118  0.67358833    -0.01000
C1907       C  0.11723793  0.54862502  0.79335985    -0.02200
C1908       C  0.11311360  0.54804482  0.77751983     0.07500
C1909       C  0.12096114  0.53782069  0.76741808    -0.02300
C1910       C  0.13229990  0.52759511  0.77332065    -0.02300
C1911       C  0.13620221  0.52788160  0.78930434     0.07700
C1912       C  0.12881467  0.53867741  0.79924598    -0.02500
Br1913     Br  0.13425550  0.53983543  0.82102961    -0.01000
Br1914     Br  0.10661492  0.56285193  0.80706664    -0.01100
Br1915     Br  0.14094804  0.51192784  0.75976686    -0.01000
Br1916     Br  0.11528289  0.53687854  0.74568557    -0.01000
C1917       C  0.02235147  0.36149174  0.70467102    -0.02200
C1918       C  0.03569257  0.35657551  0.71296807     0.07500
C1919       C  0.04028860  0.34083225  0.71201322    -0.02300
C1920       C  0.03159069  0.33011305  0.70303676    -0.02300
C1921       C  0.01824023  0.33506390  0.69482635     0.07700
C1922       C  0.01342767  0.35072949  0.69612445    -0.02500
Br1923     Br  0.99380997  0.35740209  0.68729815    -0.01000
Br1924     Br  0.01663834  0.38324407  0.70392351    -0.01100
Br1925     Br  0.03816816  0.30867864  0.70199568    -0.01000
Br1926     Br  0.05834947  0.33376391  0.72325433    -0.01000
C1927       C  0.12565470  0.44030500  0.77810294    -0.02200
C1928       C  0.12619158  0.44102740  0.76177713     0.07500
C1929       C  0.13731033  0.45063492  0.75449228    -0.02300
C1930       C  0.14739365  0.46010259  0.76342179    -0.02300
C1931       C  0.14564482  0.46090866  0.77990184     0.07700
C1932       C  0.13516937  0.45016388  0.78715748    -0.02500
Br1933     Br  0.13324536  0.44834110  0.80955257    -0.01000
Br1934     Br  0.11087247  0.42651337  0.78809378    -0.01100
Br1935     Br  0.16324643  0.47177064  0.75244320    -0.01000
Br1936     Br  0.13807947  0.45127978  0.73202341    -0.01000
C1937       C  0.93224924  0.62454466  0.69209802    -0.02200
C1938       C  0.93698311  0.60895000  0.69419935     0.07500
C1939       C  0.95039212  0.60363229  0.68635168    -0.02300
C1940       C  0.95991236  0.61412129  0.67807311    -0.02300
C1941       C  0.95528024  0.62977899  0.67600574     0.07700
C1942       C  0.94109816  0.63476594  0.68262459    -0.02500
Br1943     Br  0.93337037  0.65534278  0.67814890    -0.01000
Br1944     Br  0.91402509  0.63217899  0.70266155    -0.01100
Br1945     Br  0.97995355  0.60699946  0.67076123    -0.01000
Br1946     Br  0.95529179  0.58168044  0.68585770    -0.01000
C1947       C  0.83573936  0.52190128  0.74904741    -0.02200
C1948       C  0.84782432  0.53161588  0.75427422     0.07500
C1949       C  0.84968667  0.53424835  0.77032916    -0.02300
C1950       C  0.84046138  0.52602520  0.78118648    -0.02300
C1951       C  0.82870878  0.51560133  0.77600524     0.07700
C1952       C  0.82556348  0.51474958  0.75977836    -0.02500
Br1953     Br  0.80777143  0.50362328  0.75161713    -0.01000
Br1954     Br  0.83409345  0.51720909  0.72712201    -0.01100
Br1955     Br  0.84429373  0.52927623  0.80311036    -0.01000
Br1956     Br  0.86593215  0.54806779  0.77746530    -0.01000
C1957       C  0.93255265  0.34201782  0.69031127    -0.02200
C1958       C  0.93527345  0.34507639  0.70616355     0.07500
C1959       C  0.94657807  0.33646145  0.71428575    -0.02300
C1960       C  0.95628102  0.32602845  0.70624580    -0.02300
C1961       C  0.95475257  0.32430430  0.68992509     0.07700
C1962       C  0.94211663  0.33145913  0.68225229    -0.02500
Br1963     Br  0.93794192  0.32684844  0.66067857    -0.01000
Br1964     Br  0.91674070  0.35349804  0.67932468    -0.01100
Br1965     Br  0.97253571  0.31546704  0.71760492    -0.01000
Br1966     Br  0.94955732  0.34000102  0.73628052    -0.01000
C1967       C  0.84329327  0.42281687  0.77989219    -0.02200
C1968       C  0.85162954  0.42703013  0.76642502     0.07500
C1969       C  0.84816632  0.44112785  0.75878818    -0.02300
C1970       C  0.83794238  0.45186954  0.76569130    -0.02300
C1971       C  0.83081168  0.44834986  0.78005160     0.07700
C1972       C  0.83270158  0.43337701  0.78655424    -0.02500
Br1973     Br  0.82076983  0.42735610  0.80453820    -0.01000
Br1974     Br  0.84724857  0.40302670  0.78972483    -0.01100
Br1975     Br  0.83477745  0.47186100  0.75610665    -0.01000
Br1976     Br  0.85819581  0.44600676  0.73927288    -0.01000
C1977       C  0.29913258  0.62282095  0.03645338    -0.02200
C1978       C  0.28287159  0.62152123  0.03645676     0.07500
C1979       C  0.27380643  0.63229099  0.02814761    -0.02300
C1980       C  0.28101972  0.64392763  0.01907004    -0.02300
C1981       C  0.29751328  0.64468196  0.01810910     0.07700
C1982       C  0.30651140  0.63422958  0.02730098    -0.02500
Br1983     Br  0.32904540  0.63450007  0.02724297    -0.01000
Br1984     Br  0.31131229  0.60835075  0.04866158    -0.01100
Br1985     Br  0.26780159  0.65728651  0.00667397    -0.01000
Br1986     Br  0.25144130  0.62998651  0.02786303    -0.01000
C1987       C  0.19843173  0.54284923  0.11982765    -0.02200
C1988       C  0.21388693  0.54337929  0.11456130     0.07500
C1989       C  0.22516280  0.53367737  0.12141279    -0.02300
C1990       C  0.22061715  0.52224807  0.13229310    -0.02300
C1991       C  0.20484058  0.52090612  0.13671525     0.07700
C1992       C  0.19391664  0.53176421  0.13100620    -0.02500
Br1993     Br  0.17265282  0.53144389  0.13826117    -0.01000
Br1994     Br  0.18337353  0.55707409  0.11121962    -0.01100
Br1995     Br  0.23576275  0.50742198  0.13959737    -0.01000
Br1996     Br  0.24665097  0.53533841  0.11508294    -0.01000
C1997       C  0.29564489  0.36757188  0.01260664    -0.02200
C1998       C  0.28697913  0.35969717  0.02420492     0.07500
C1999       C  0.28895110  0.34353667  0.02619031    -0.02300
C2000       C  0.29881954  0.33514165  0.01610384    -0.02300
C2001       C  0.30694048  0.34290770  0.00401248     0.07700
C2002       C  0.30539870  0.35923815  0.00245805    -0.02500
Br2003     Br  0.31569006  0.37040179  0.98574340    -0.01000
Br2004     Br  0.29472363  0.39000907  0.01085435    -0.01100
Br2005     Br  0.30136698  0.31303169  0.01919289    -0.01000
Br2006     Br  0.27781496  0.33282691  0.04253477    -0.01000
C2007       C  0.22210804  0.43621654  0.11683425    -0.02200
C2008       C  0.23835025  0.43778992  0.11790423     0.07500
C2009       C  0.24476926  0.44703118  0.12977828    -0.02300
C2010       C  0.23505238  0.45532137  0.14014439    -0.02300
C2011       C  0.21853888  0.45442670  0.13873802     0.07700
C2012       C  0.21226219  0.44413989  0.12730523    -0.02500
Br2013     Br  0.19015235  0.44013596  0.12565588    -0.01000
Br2014     Br  0.21323328  0.42401543  0.10013579    -0.01100
Br2015     Br  0.24505598  0.46819026  0.15562759    -0.01000
Br2016     Br  0.26714529  0.44846049  0.13150503    -0.01000
C2017       C  0.28516610  0.63234366  0.92821373    -0.02200
C2018       C  0.27924713  0.61852086  0.93499329     0.07500
C2019       C  0.28006437  0.61657282  0.95135846    -0.02300
C2020       C  0.28801573  0.62753040  0.96052430    -0.02300
C2021       C  0.29416152  0.64111490  0.95369141     0.07700
C2022       C  0.29223364  0.64379359  0.93764109    -0.02500
Br2023     Br  0.29978058  0.66294637  0.92859290    -0.01000
Br2024     Br  0.28460263  0.63527550  0.90595974    -0.01100
Br2025     Br  0.29055352  0.62384462  0.98256082    -0.01000
Br2026     Br  0.26948626  0.59952858  0.96168402    -0.01000
C2027       C  0.19003537  0.55381737  0.84716263    -0.02200
C2028       C  0.19857988  0.54756021  0.85974265     0.07500
C2029       C  0.20209002  0.53149227  0.85982319    -0.02300
C2030       C  0.19544442  0.52157172  0.84869472    -0.02300
C2031       C  0.18703774  0.52775615  0.83608280     0.07700
C2032       C  0.18495835  0.54400775  0.83494451    -0.02500
Br2033     Br  0.17484353  0.55270780  0.81692408    -0.01000
Br2034     Br  0.18432096  0.57549086  0.84721010    -0.01100
Br2035     Br  0.19745865  0.49932765  0.85113795    -0.01000
Br2036     Br  0.21678122  0.52290595  0.87453407    -0.01000
C2037       C  0.28817825  0.36313948  0.93038653    -0.02200
C2038       C  0.29648788  0.36860934  0.91728444     0.07500
C2039       C  0.31148428  0.36287026  0.91425962    -0.02300
C2040       C  0.31822781  0.35187528  0.92436915    -0.02300
C2041       C  0.31038578  0.34718680  0.93803748     0.07700
C2042       C  0.29521219  0.35269633  0.94091483    -0.02500
Br2043     Br  0.28461224  0.34718766  0.95998025    -0.01000
Br2044     Br  0.26742815  0.37068037  0.93432756    -0.01100
Br2045     Br  0.33815830  0.34308270  0.91934896    -0.01000
Br2046     Br  0.32320846  0.37092009  0.89685093    -0.01000
C2047       C  0.21312671  0.46602668  0.82683452    -0.02200
C2048       C  0.19707965  0.46259137  0.82512176     0.07500
C2049       C  0.19129807  0.44829042  0.83100909    -0.02300
C2050       C  0.20096778  0.43840845  0.83978248    -0.02300
C2051       C  0.21642467  0.44271919  0.84287322     0.07700
C2052       C  0.22267541  0.45617659  0.83585696    -0.02500
Br2053     Br  0.24411542  0.46164342  0.83965721    -0.01000
Br2054     Br  0.22204829  0.48478786  0.81811636    -0.01100
Br2055     Br  0.19294140  0.41916332  0.84825785    -0.01000
Br2056     Br  0.17015135  0.44195568  0.82713874    -0.01000
C2057       C  0.65365744  0.23131013  0.02555092    -0.02200
C2058       C  0.64276354  0.23761465  0.03597196     0.07500
C2059       C  0.64356218  0.25344586  0.03989858    -0.02300
C2060       C  0.65389930  0.26332319  0.03191175    -0.02300
C2061       C  0.66323612  0.25750011  0.01971169     0.07700
C2062       C  0.66402395  0.24118452  0.01745993    -0.02500
Br2063     Br  0.67821477  0.23216889  0.00260036    -0.01000
Br2064     Br  0.65347147  0.20918591  0.02173163    -0.01100
Br2065     Br  0.65513168  0.28486508  0.03777889    -0.01000
Br2066     Br  0.62934024  0.26190474  0.05506293    -0.01000
C2067       C  0.54300759  0.19461389  0.11847675    -0.02200
C2068       C  0.55038973  0.18274995  0.11005005     0.07500
C2069       C  0.54761372  0.16709540  0.11381402    -0.02300
C2070       C  0.53646131  0.16318008  0.12514340    -0.02300
C2071       C  0.52757171  0.17503457  0.13241788     0.07700
C2072       C  0.53158536  0.19084728  0.12962806    -0.02500
Br2073     Br  0.52105401  0.20775392  0.13995923    -0.01000
Br2074     Br  0.54773477  0.21612326  0.11378715    -0.01100
Br2075     Br  0.53397415  0.14146691  0.13067809    -0.01000
Br2076     Br  0.55891358  0.15103416  0.10294356    -0.01000
C2077       C  0.37019562  0.29279546  0.02838850    -0.02200
C2078       C  0.37659428  0.27835564  0.02423976     0.07500
C2079       C  0.37150397  0.27084212  0.01058933    -0.02300
C2080       C  0.36158709  0.27861804  0.00010070    -0.02300
C2081       C  0.35609361  0.29366801  0.00365860     0.07700
C2082       C  0.35978677  0.30034315  0.01822159    -0.02500
Br2083     Br  0.35053814  0.31983919  0.02427225    -0.01000
Br2084     Br  0.37632475  0.30251960  0.04765120    -0.01100
Br2085     Br  0.35689390  0.26920573  0.98028114    -0.01000
Br2086     Br  0.37827113  0.24987735  0.00633591    -0.01000
C2087       C  0.45327729  0.20969456  0.11544591    -0.02200
C2088       C  0.44285227  0.20121526  0.10611714     0.07500
C2089       C  0.44037940  0.18532488  0.10900618    -0.02300
C2090       C  0.44886591  0.17762094  0.12069835    -0.02300
C2091       C  0.46018063  0.18580799  0.12960550     0.07700
C2092       C  0.46208634  0.20206091  0.12699348    -0.02500
Br2093     Br  0.47779413  0.21405534  0.13774906    -0.01000
Br2094     Br  0.45633033  0.23166540  0.11157162    -0.01100
Br2095     Br  0.44465948  0.15576131  0.12386565    -0.01000
Br2096     Br  0.42533732  0.17409224  0.09656990    -0.01000
C2097       C  0.64119082  0.24314988  0.94540422    -0.02200
C2098       C  0.64109822  0.24928651  0.93014337     0.07500
C2099       C  0.65245089  0.26033901  0.92577372    -0.02300
C2100       C  0.66325717  0.26578527  0.93687407    -0.02300
C2101       C  0.66186957  0.26118050  0.95257587     0.07700
C2102       C  0.65087854  0.24975103  0.95677023    -0.02500
Br2103     Br  0.64758211  0.24455475  0.97834306    -0.01000
Br2104     Br  0.62757984  0.22607529  0.95097540    -0.01100
Br2105     Br  0.67908505  0.28060683  0.93097430    -0.01000
Br2106     Br  0.65196201  0.26945932  0.90526402    -0.01000
C2107       C  0.55986671  0.17359961  0.84120426    -0.02200
C2108       C  0.56079434  0.18966616  0.84420588     0.07500
C2109       C  0.55271767  0.20018144  0.83454329    -0.02300
C2110       C  0.54313499  0.19454670  0.82243391    -0.02300
C2111       C  0.54033164  0.17833076  0.82104402     0.07700
C2112       C  0.54973728  0.16793809  0.82968795    -0.02500
Br2113     Br  0.54954898  0.14586745  0.82534034    -0.01000
Br2114     Br  0.57223725  0.15921099  0.85326524    -0.01100
Br2115     Br  0.53428664  0.20926053  0.80793042    -0.01000
Br2116     Br  0.55322862  0.22217753  0.83903229    -0.01000
C2117       C  0.38205405  0.29901573  0.91877107    -0.02200
C2118       C  0.37988619  0.28312689  0.91553604     0.07500
C2119       C  0.36626284  0.27559632  0.92071334    -0.02300
C2120       C  0.35565530  0.28345160  0.93050009    -0.02300
C2121       C  0.35871491  0.29903823  0.93535895     0.07700
C2122       C  0.37156681  0.30701035  0.92845986    -0.02500
Br2123     Br  0.37535019  0.32900197  0.93163167    -0.01000
Br2124     Br  0.39972140  0.30986193  0.90982890    -0.01100
Br2125     Br  0.33743915  0.27201112  0.93731586    -0.01000
Br2126     Br  0.36266315  0.25404371  0.91538766    -0.01000
C2127       C  0.46913619  0.20322246  0.84399339    -0.02200
C2128       C  0.45294792  0.20039505  0.84383552     0.07500
C2129       C  0.44648762  0.19093663  0.83211602    -0.02300
C2130       C  0.45627663  0.18357469  0.82120388    -0.02300
C2131       C  0.47253513  0.18561534  0.82201816     0.07700
C2132       C  0.47887528  0.19579236  0.83316554    -0.02500
Br2133     Br  0.50104415  0.19907832  0.83398447    -0.01000
Br2134     Br  0.47806938  0.21734438  0.85902084    -0.01100
Br2135     Br  0.44746815  0.17063042  0.80521541    -0.01000
Br2136     Br  0.42432834  0.18745974  0.83154955    -0.01000
C2137       C  0.64004783  0.03433403  0.67966427    -0.02200
C2138       C  0.63863886  0.03146372  0.69572501     0.07500
C2139       C  0.64840221  0.02046153  0.70290157    -0.02300
C2140       C  0.65845931  0.01123823  0.69384465    -0.02300
C2141       C  0.65858729  0.01284460  0.67741818     0.07700
C2142       C  0.65019059  0.02525688  0.67056856    -0.02500
Br2143     Br  0.65259758  0.03002194  0.64869705    -0.01000
Br2144     Br  0.62702436  0.04977708  0.66992797    -0.01100
Br2145     Br  0.67105546  0.99587309  0.70421770    -0.01000
Br2146     Br  0.64711842  0.01737790  0.72516028    -0.01000
C2147       C  0.56150036  0.12462101  0.76669504    -0.02200
C2148       C  0.55584956  0.11103411  0.75944127     0.07500
C2149       C  0.53971806  0.10932777  0.75691226    -0.02300
C2150       C  0.52921857  0.11983754  0.76365282    -0.02300
C2151       C  0.53480850  0.13283179  0.77189588     0.07700
C2152       C  0.55095865  0.13557846  0.77284147    -0.02500
Br2153     Br  0.55858105  0.15367831  0.78366969    -0.01000
Br2154     Br  0.58357109  0.12777137  0.76900945    -0.01100
Br2155     Br  0.50716270  0.11583617  0.76244000    -0.01000
Br2156     Br  0.53199975  0.09265544  0.74397622    -0.01000
C2157       C  0.34807421  0.01292688  0.70141473    -0.02200
C2158       C  0.35407306  0.00035972  0.69277921     0.07500
C2159       C  0.37008221  0.99687028  0.69366674    -0.02300
C2160       C  0.37998249  0.00573967  0.70322546    -0.02300
C2161       C  0.37393695  0.01809707  0.71224035     0.07700
C2162       C  0.35793625  0.02164896  0.71124761    -0.02500
Br2163     Br  0.34931529  0.03802989  0.72388472    -0.01000
Br2164     Br  0.32654958  0.01877922  0.69911236    -0.01100
Br2165     Br  0.40198505  0.00113615  0.70316156    -0.01000
Br2166     Br  0.37857091  0.97952362  0.68211525    -0.01000
C2167       C  0.45729847  0.12876172  0.77681118    -0.02200
C2168       C  0.46924931  0.13788222  0.76993032     0.07500
C2169       C  0.47108845  0.13750891  0.75350931    -0.02300
C2170       C  0.46246567  0.12681373  0.74452399    -0.02300
C2171       C  0.45128532  0.11705151  0.75158901     0.07700
C2172       C  0.44813967  0.11869831  0.76761920    -0.02500
Br2173     Br  0.43207772  0.10631561  0.77741041    -0.01000
Br2174     Br  0.45342172  0.12957300  0.79896038    -0.01100
Br2175     Br  0.46642252  0.12502806  0.72244014    -0.01000
Br2176     Br  0.48618950  0.15057707  0.74301550    -0.01000
C2177       C  0.64375863  0.93365381  0.70059144    -0.02200
C2178       C  0.63103902  0.92609020  0.69360961     0.07500
C2179       C  0.62893638  0.92715215  0.67742420    -0.02300
C2180       C  0.63848331  0.93699073  0.66837890    -0.02300
C2181       C  0.65074226  0.94563108  0.67542233     0.07700
C2182       C  0.65363934  0.94331095  0.69160363    -0.02500
Br2183     Br  0.67031425  0.95393603  0.70228674    -0.01000
Br2184     Br  0.64705872  0.93153804  0.72275693    -0.01100
Br2185     Br  0.63417895  0.93821988  0.64633380    -0.01000
Br2186     Br  0.61288853  0.91473242  0.66764252    -0.01000
C2187       C  0.56831187  0.83756881  0.78587498    -0.02200
C2188       C  0.56478826  0.84359324  0.77108523     0.07500
C2189       C  0.55307481  0.83657065  0.76201803    -0.02300
C2190       C  0.54370027  0.82469494  0.76844694    -0.02300
C2191       C  0.54612904  0.81984210  0.78400173     0.07700
C2192       C  0.55926902  0.82541724  0.79213325    -0.02500
Br2193     Br  0.56496015  0.81634858  0.81182095    -0.01000
Br2194     Br  0.58469671  0.84691225  0.79805314    -0.01100
Br2195     Br  0.52675046  0.81632587  0.75630873    -0.01000
Br2196     Br  0.54899759  0.84428981  0.74130106    -0.01000
C2197       C  0.36963830  0.92418618  0.70220418    -0.02200
C2198       C  0.37869945  0.91574658  0.69150735     0.07500
C2199       C  0.37519627  0.91642972  0.67554000    -0.02300
C2200       C  0.36320702  0.92617890  0.67014766    -0.02300
C2201       C  0.35519302  0.93596398  0.68066196     0.07700
C2202       C  0.35818976  0.93457873  0.69682282    -0.02500
Br2203     Br  0.34817959  0.94810985  0.71168037    -0.01000
Br2204     Br  0.37381182  0.92240509  0.72424089    -0.01100
Br2205     Br  0.35785906  0.92598002  0.64831000    -0.01000
Br2206     Br  0.38744175  0.90451911  0.66102410    -0.01000
C2207       C  0.45544248  0.83466872  0.77249474    -0.02200
C2208       C  0.46125783  0.84945693  0.76813702     0.07500
C2209       C  0.47725030  0.85277800  0.77020297    -0.02300
C2210       C  0.48686421  0.84218569  0.77810999    -0.02300
C2211       C  0.48084479  0.82779530  0.78322800     0.07700
C2212       C  0.46526235  0.82382941  0.77994254    -0.02500
Br2213     Br  0.45710377  0.80391190  0.78650369    -0.01000
Br2214     Br  0.43393167  0.82932449  0.76889142    -0.01100
Br2215     Br  0.50846845  0.84733956  0.78167370    -0.01000
Br2216     Br  0.48650007  0.87124212  0.76114665    -0.01000
C2217       C  0.64425653  0.67067905  0.04857174    -0.02200
C2218       C  0.64758857  0.67774477  0.03411097     0.07500
C2219       C  0.63991142  0.69158317  0.02986161    -0.02300
C2220       C  0.62798785  0.69752068  0.03937547    -0.02300
C2221       C  0.62410221  0.68998886  0.05349478     0.07700
C2222       C  0.63256196  0.67681393  0.05827154    -0.02500
Br2223     Br  0.62739423  0.66660179  0.07761399    -0.01000
Br2224     Br  0.65579774  0.65261762  0.05505898    -0.01100
Br2225     Br  0.61636658  0.71548664  0.03257513    -0.01000
Br2226     Br  0.64507066  0.70191107  0.01053263    -0.01000
C2227       C  0.54954132  0.77562674  0.13483312    -0.02200
C2228       C  0.54464604  0.77014172  0.12012358     0.07500
C2229       C  0.52881380  0.77171790  0.11581145    -0.02300
C2230       C  0.51852957  0.78016242  0.12528018    -0.02300
C2231       C  0.52355546  0.78592774  0.13974153     0.07700
C2232       C  0.53886500  0.78307707  0.14480734    -0.02500
Br2233     Br  0.54541988  0.79031170  0.16503826    -0.01000
Br2234     Br  0.57107681  0.77421154  0.14088512    -0.01100
Br2235     Br  0.49751639  0.78401422  0.11831793    -0.01000
Br2236     Br  0.52070055  0.76172695  0.09735189    -0.01000
C2237       C  0.35329143  0.69861881  0.04098635    -0.02200
C2238       C  0.36215846  0.71152401  0.03611933     0.07500
C2239       C  0.35973344  0.71798282  0.02121343    -0.02300
C2240       C  0.34930958  0.71084203  0.01079388    -0.02300
C2241       C  0.34138269  0.69717877  0.01521607     0.07700
C2242       C  0.34279407  0.69155572  0.03058774    -0.02500
Br2243     Br  0.33029667  0.67422987  0.03740363    -0.01000
Br2244     Br  0.35638470  0.68999207  0.06150770    -0.01100
Br2245     Br  0.34667442  0.71917012  0.99014235    -0.01000
Br2246     Br  0.37139277  0.73610665  0.01477787    -0.01000
C2247       C  0.44811996  0.76865856  0.13033761    -0.02200
C2248       C  0.43770126  0.77756332  0.12140151     0.07500
C2249       C  0.43639397  0.79363161  0.12404354    -0.02300
C2250       C  0.44625296  0.80103011  0.13482459    -0.02300
C2251       C  0.45778197  0.79237660  0.14276864     0.07700
C2252       C  0.45835349  0.77602752  0.14080562    -0.02500
Br2253     Br  0.47443316  0.76376810  0.15062316    -0.01000
Br2254     Br  0.44912129  0.74644245  0.12726674    -0.01100
Br2255     Br  0.44412185  0.82312596  0.13822638    -0.01000
Br2256     Br  0.42180781  0.80561261  0.11188778    -0.01000
C2257       C  0.62366061  0.68979656  0.95826608    -0.02200
C2258       C  0.63108018  0.70090680  0.94869042     0.07500
C2259       C  0.64741380  0.70162104  0.94824524    -0.02300
C2260       C  0.65634088  0.69154175  0.95764357    -0.02300
C2261       C  0.64893333  0.68119348  0.96822970     0.07700
C2262       C  0.63243620  0.68027774  0.96828421    -0.02500
Br2263     Br  0.62125456  0.66685926  0.98260408    -0.01000
Br2264     Br  0.60127700  0.68740981  0.95749955    -0.01100
Br2265     Br  0.67868617  0.69158806  0.95520016    -0.01000
Br2266     Br  0.65752624  0.71686222  0.93514446    -0.01000
C2267       C  0.54459944  0.74363261  0.84322061    -0.02200
C2268       C  0.55396803  0.74984611  0.85508443     0.07500
C2269       C  0.55673868  0.76596898  0.85561735    -0.02300
C2270       C  0.54912716  0.77602229  0.84510976    -0.02300
C2271       C  0.53914415  0.76991274  0.83336845     0.07700
C2272       C  0.53786549  0.75345432  0.83193123    -0.02500
Br2273     Br  0.52673404  0.74367917  0.81500128    -0.01000
Br2274     Br  0.54025695  0.72154943  0.84306674    -0.01100
Br2275     Br  0.55267130  0.79813373  0.84742094    -0.01000
Br2276     Br  0.57006541  0.77441990  0.87165534    -0.01000
C2277       C  0.36203303  0.68937249  0.92871086    -0.02200
C2278       C  0.36472193  0.70550418  0.92937055     0.07500
C2279       C  0.35367886  0.71525385  0.93652571    -0.02300
C2280       C  0.34094028  0.70867867  0.94459955    -0.02300
C2281       C  0.33975373  0.69233096  0.94604681     0.07700
C2282       C  0.34927928  0.68286358  0.93660113    -0.02500
Br2283     Br  0.34483551  0.66090563  0.93441467    -0.01000
Br2284     Br  0.37650138  0.67603065  0.91797091    -0.01100
Br2285     Br  0.32557208  0.72214100  0.95375427    -0.01000
Br2286     Br  0.35699242  0.73745604  0.93680597    -0.01000
C2287       C  0.45244169  0.78438538  0.85137314    -0.02200
C2288       C  0.45270540  0.76855736  0.85551420     0.07500
C2289       C  0.46225459  0.75816378  0.84727207    -0.02300
C2290       C  0.47240769  0.76376920  0.83564748    -0.02300
C2291       C  0.47300075  0.77987547  0.83221810     0.07700
C2292       C  0.46222323  0.78995967  0.83944730    -0.02500
Br2293     Br  0.46069434  0.81145260  0.83298539    -0.01000
Br2294     Br  0.43964535  0.79863934  0.86300696    -0.01100
Br2295     Br  0.48627837  0.74936153  0.82562057    -0.01000
Br2296     Br  0.46239027  0.73640441  0.85299946    -0.01000
C2297       C  0.64024813  0.04032388  0.25863300    -0.02200
C2298       C  0.63101541  0.04949812  0.26851633     0.07500
C2299       C  0.63450473  0.05029342  0.28444824    -0.02300
C2300       C  0.64593210  0.04052335  0.29087470    -0.02300
C2301       C  0.65393653  0.02969694  0.28133150     0.07700
C2302       C  0.65187680  0.03061584  0.26493680    -0.02500
Br2303     Br  0.66414079  0.01827233  0.25075834    -0.01000
Br2304     Br  0.63604756  0.04009234  0.23655222    -0.01100
Br2305     Br  0.65058907  0.04258041  0.31274790    -0.01000
Br2306     Br  0.62321727  0.06470030  0.29745898    -0.01000
C2307       C  0.51471230  0.12750192  0.19795181    -0.02200
C2308       C  0.52038797  0.13911068  0.18787826     0.07500
C2309       C  0.53653514  0.14142045  0.18623347    -0.02300
C2310       C  0.54695805  0.13084928  0.19315921    -0.02300
C2311       C  0.54120288  0.11880854  0.20277994     0.07700
C2312       C  0.52514789  0.11806869  0.20617193    -0.02500
Br2313     Br  0.51738244  0.10444808  0.22235517    -0.01000
Br2314     Br  0.49265632  0.12374573  0.19970454    -0.01100
Br2315     Br  0.56879397  0.13198718  0.18815132    -0.01000
Br2316     Br  0.54426594  0.15836378  0.17361438    -0.01000
C2317       C  0.35736442  0.01642893  0.28195048    -0.02200
C2318       C  0.34386607  0.02176155  0.28948419     0.07500
C2319       C  0.34035206  0.03777493  0.28940841    -0.02300
C2320       C  0.35128600  0.04857722  0.28353664    -0.02300
C2321       C  0.36544989  0.04323801  0.27725378     0.07700
C2322       C  0.36777174  0.02711510  0.27524050    -0.02500
Br2323     Br  0.38474714  0.01960007  0.26256385    -0.01000
Br2324     Br  0.36187968  0.99448586  0.28112302    -0.01100
Br2325     Br  0.34715527  0.07057690  0.28479684    -0.01000
Br2326     Br  0.32094459  0.04487992  0.29804516    -0.01000
C2327       C  0.44169427  0.13937206  0.18251895    -0.02200
C2328       C  0.45483792  0.14710610  0.18863839     0.07500
C2329       C  0.45774733  0.14631299  0.20484670    -0.02300
C2330       C  0.44926721  0.13571404  0.21411627    -0.02300
C2331       C  0.43753000  0.12651028  0.20735555     0.07700
C2332       C  0.43301552  0.12914969  0.19189636    -0.02500
Br2333     Br  0.41543658  0.11802710  0.18342233    -0.01000
Br2334     Br  0.43551344  0.14265880  0.16127488    -0.01100
Br2335     Br  0.45423856  0.13302334  0.23585674    -0.01000
Br2336     Br  0.47393919  0.15868107  0.21435321    -0.01000
C2337       C  0.63879111  0.94712995  0.25925826    -0.02200
C2338       C  0.62930264  0.93821505  0.26921870     0.07500
C2339       C  0.63150928  0.93901260  0.28538944    -0.02300
C2340       C  0.64219909  0.94968465  0.29175923    -0.02300
C2341       C  0.65081793  0.95985978  0.28187103     0.07700
C2342       C  0.64943241  0.95801475  0.26547850    -0.02500
Br2343     Br  0.66075902  0.97118807  0.25113409    -0.01000
Br2344     Br  0.63630747  0.94514438  0.23700202    -0.01100
Br2345     Br  0.64460603  0.94996302  0.31415735    -0.01000
Br2346     Br  0.61935883  0.92555611  0.29879887    -0.01000
C2347       C  0.54237494  0.84385902  0.17811548    -0.02200
C2348       C  0.53108546  0.83580369  0.18703612     0.07500
C2349       C  0.53059226  0.83812055  0.20336047    -0.02300
C2350       C  0.53976247  0.84989096  0.21018445    -0.02300
C2351       C  0.54958998  0.85914826  0.20085009     0.07700
C2352       C  0.55138780  0.85568644  0.18497006    -0.02500
Br2353     Br  0.56562053  0.86781393  0.17246875    -0.01000
Br2354     Br  0.54567832  0.83864647  0.15649772    -0.01100
Br2355     Br  0.53792030  0.85429225  0.23214009    -0.01000
Br2356     Br  0.51666763  0.82622890  0.21648680    -0.01000
C2357       C  0.35078401  0.95080567  0.26086281    -0.02200
C2358       C  0.36213978  0.94109947  0.26747058     0.07500
C2359       C  0.36298566  0.93938473  0.28374964    -0.02300
C2360       C  0.35234019  0.94722505  0.29342192    -0.02300
C2361       C  0.34125320  0.95760710  0.28689398     0.07700
C2362       C  0.34059900  0.95927987  0.27043462    -0.02500
Br2363     Br  0.32716721  0.97434719  0.26048121    -0.01000
Br2364     Br  0.34952388  0.95279707  0.23845261    -0.01100
Br2365     Br  0.35331252  0.94342707  0.31560855    -0.01000
Br2366     Br  0.37971439  0.92749469  0.29292260    -0.01000
C2367       C  0.46167927  0.86852040  0.20228087    -0.02200
C2368       C  0.45028096  0.86223377  0.21238497     0.07500
C2369       C  0.44641292  0.84631196  0.21134707    -0.02300
C2370       C  0.45416551  0.83668018  0.20062060    -0.02300
C2371       C  0.46651540  0.84266587  0.19150926     0.07700
C2372       C  0.47021349  0.85869216  0.19238741    -0.02500
Br2373     Br  0.48776836  0.86725085  0.18112301    -0.01000
Br2374     Br  0.46512866  0.89075911  0.20117422    -0.01100
Br2375     Br  0.44736272  0.81538620  0.19809274    -0.01000
Br2376     Br  0.43107537  0.83737735  0.22517704    -0.01000
C2377       C  0.27931821  0.01974724  0.63558513    -0.02200
C2378       C  0.28811766  0.03261108  0.63032349     0.07500
C2379       C  0.30331779  0.03483252  0.63592818    -0.02300
C2380       C  0.31032107  0.02334361  0.64527690    -0.02300
C2381       C  0.30214061  0.00953863  0.64900944     0.07700
C2382       C  0.28621803  0.00834457  0.64517465    -0.02500
Br2383     Br  0.27412226  0.99060216  0.65188028    -0.01000
Br2384     Br  0.25822115  0.01708581  0.62841351    -0.01100
Br2385     Br  0.33127764  0.02640540  0.65276576    -0.01000
Br2386     Br  0.31496582  0.05299069  0.62961076    -0.01000
C2387       C  0.21401561  0.12696493  0.55599224    -0.02200
C2388       C  0.22249321  0.11459961  0.54935829     0.07500
C2389       C  0.22410770  0.11389451  0.53299898    -0.02300
C2390       C  0.21524782  0.12370631  0.52338103    -0.02300
C2391       C  0.20575694  0.13521992  0.53001057     0.07700
C2392       C  0.20596400  0.13750716  0.54626036    -0.02500
Br2393     Br  0.19489760  0.15482886  0.55508871    -0.01000
Br2394     Br  0.21266213  0.12897850  0.57828372    -0.01100
Br2395     Br  0.21568605  0.12098949  0.50109435    -0.01000
Br2396     Br  0.23886829  0.09978475  0.52371072    -0.01000
C2397       C  0.27445279  0.03637738  0.35186061    -0.02200
C2398       C  0.28421458  0.04230133  0.36363505     0.07500
C2399       C  0.30042343  0.04173599  0.36172963    -0.02300
C2400       C  0.30687573  0.03357446  0.34914653    -0.02300
C2401       C  0.29712196  0.02529732  0.33875319     0.07700
C2402       C  0.28090757  0.02822073  0.33915947    -0.02500
Br2403     Br  0.26735771  0.02156439  0.32252564    -0.01000
Br2404     Br  0.25218565  0.03838662  0.35375720    -0.01100
Br2405     Br  0.32908922  0.03461115  0.34574841    -0.01000
Br2406     Br  0.31378412  0.05196391  0.37660727    -0.01000
C2407       C  0.19481452  0.11790424  0.44320357    -0.02200
C2408       C  0.21107608  0.11652471  0.44206729     0.07500
C2409       C  0.22067760  0.12759161  0.44950328    -0.02300
C2410       C  0.21413417  0.13842753  0.45995986    -0.02300
C2411       C  0.19786322  0.13850212  0.46257065     0.07700
C2412       C  0.18824307  0.12929051  0.45287449    -0.02500
Br2413     Br  0.16603416  0.13267598  0.45215954    -0.01000
Br2414     Br  0.18146947  0.10388909  0.43173921    -0.01100
Br2415     Br  0.22779431  0.15234211  0.47112316    -0.01000
Br2416     Br  0.24289549  0.12723001  0.44634027    -0.01000
C2417       C  0.29755824  0.91637034  0.62571122    -0.02200
C2418       C  0.29076865  0.92288030  0.61220479     0.07500
C2419       C  0.29004179  0.93930890  0.61068266    -0.02300
C2420       C  0.29688023  0.94894283  0.62200842    -0.02300
C2421       C  0.30367889  0.94241672  0.63539648     0.07700
C2422       C  0.30367008  0.92613405  0.63743240    -0.02500
Br2423     Br  0.31286762  0.91719761  0.65586274    -0.01000
Br2424     Br  0.29977394  0.89410242  0.62762244    -0.01100
Br2425     Br  0.29708593  0.97127935  0.61915201    -0.01000
Br2426     Br  0.27912903  0.94906320  0.59358429    -0.01000
C2427       C  0.20695919  0.83790961  0.51265262    -0.02200
C2428       C  0.19935139  0.82461765  0.51847205     0.07500
C2429       C  0.19912323  0.82176209  0.53463534    -0.02300
C2430       C  0.20564338  0.83274279  0.54502178    -0.02300
C2431       C  0.21255818  0.84654282  0.53920946     0.07700
C2432       C  0.21376363  0.84868856  0.52289404    -0.02500
Br2433     Br  0.22537966  0.86595805  0.51421307    -0.01000
Br2434     Br  0.20789165  0.84145213  0.49047604    -0.01100
Br2435     Br  0.20444967  0.82914074  0.56715493    -0.01000
Br2436     Br  0.18959921  0.80294587  0.54243040    -0.01000
C2437       C  0.26938383  0.95508980  0.35712887    -0.02200
C2438       C  0.27405282  0.93964399  0.36016190     0.07500
C2439       C  0.28647585  0.93323589  0.35160698    -0.02300
C2440       C  0.29473454  0.94250598  0.34075566    -0.02300
C2441       C  0.29058405  0.95820790  0.33837834     0.07700
C2442       C  0.27755379  0.96426959  0.34623671    -0.02500
Br2443     Br  0.27150317  0.98557711  0.34297296    -0.01000
Br2444     Br  0.25199836  0.96392296  0.36825734    -0.01100
Br2445     Br  0.31176077  0.93375366  0.32916335    -0.01000
Br2446     Br  0.29290394  0.91213323  0.35562411    -0.01000
C2447       C  0.19132103  0.84845984  0.43438454    -0.02200
C2448       C  0.20740411  0.85129620  0.43360204     0.07500
C2449       C  0.21775244  0.84056559  0.44039110    -0.02300
C2450       C  0.21201222  0.82812477  0.44960352    -0.02300
C2451       C  0.19572218  0.82609376  0.45166574     0.07700
C2452       C  0.18549634  0.83572443  0.44295406    -0.02500
Br2453     Br  0.16336452  0.83162682  0.44222932    -0.01000
Br2454     Br  0.17719049  0.86238725  0.42383857    -0.01100
Br2455     Br  0.22683082  0.81493583  0.46014848    -0.01000
Br2456     Br  0.23986161  0.84354191  0.43783615    -0.01000
C2457       C  0.02411071  0.69270593  0.59895137    -0.02200
C2458       C  0.03404722  0.70431087  0.60495155     0.07500
C2459       C  0.03555059  0.70590609  0.62123015    -0.02300
C2460       C  0.02682613  0.69626641  0.63143173    -0.02300
C2461       C  0.01621553  0.68515917  0.62540522     0.07700
C2462       C  0.01488369  0.68358795  0.60900255    -0.02500
Br2463     Br  0.99956838  0.66988774  0.59971967    -0.01000
Br2464     Br  0.02358800  0.68866709  0.57678651    -0.01100
Br2465     Br  0.02993334  0.69806493  0.65360915    -0.01000
Br2466     Br  0.04935251  0.72154075  0.62953946    -0.01000
C2467       C  0.14385367  0.77579587  0.52861634    -0.02200
C2468       C  0.15558288  0.76932700  0.51903638     0.07500
C2469       C  0.15691835  0.75289396  0.51827292    -0.02300
C2470       C  0.14506425  0.74338394  0.52460027    -0.02300
C2471       C  0.13214693  0.75014853  0.53198734     0.07700
C2472       C  0.13194361  0.76628927  0.53466294    -0.02500
Br2473     Br  0.11448822  0.77561589  0.54524454    -0.01000
Br2474     Br  0.14395418  0.79772402  0.53361247    -0.01100
Br2475     Br  0.14585301  0.72108149  0.52226438    -0.01000
Br2476     Br  0.17417931  0.74306619  0.50782193    -0.01000
C2477       C  0.03389706  0.69581117  0.35173235    -0.02200
C2478       C  0.04713213  0.70432427  0.34685582     0.07500
C2479       C  0.05241395  0.70289973  0.33140166    -0.02300
C2480       C  0.04410191  0.69365551  0.32067219    -0.02300
C2481       C  0.03033922  0.68580105  0.32532742     0.07700
C2482       C  0.02538010  0.68684713  0.34100313    -0.02500
Br2483     Br  0.00608087  0.67733006  0.34779664    -0.01000
Br2484     Br  0.02738017  0.69618053  0.37330204    -0.01100
Br2485     Br  0.05180220  0.69189384  0.29960840    -0.01000
Br2486     Br  0.07055886  0.71434518  0.32464320    -0.01000
C2487       C  0.14422765  0.76857756  0.42636766    -0.02200
C2488       C  0.13352545  0.75725342  0.43152853     0.07500
C2489       C  0.13446538  0.75159282  0.44689647    -0.02300
C2490       C  0.14444805  0.75882113  0.45766599    -0.02300
C2491       C  0.15429095  0.77104702  0.45282069     0.07700
C2492       C  0.15483145  0.77524659  0.43695821    -0.02500
Br2493     Br  0.16953600  0.79070707  0.42997442    -0.01000
Br2494     Br  0.14333028  0.77591911  0.40516717    -0.01100
Br2495     Br  0.14347523  0.75297813  0.47928890    -0.01000
Br2496     Br  0.12140666  0.73441842  0.45326730    -0.01000
C2497       C  0.93385619  0.67823942  0.60328796    -0.02200
C2498       C  0.93822477  0.69314679  0.59803490     0.07500
C2499       C  0.94992707  0.70152291  0.60587341    -0.02300
C2500       C  0.95785852  0.69465085  0.61843571    -0.02300
C2501       C  0.95410510  0.67931530  0.62313844     0.07700
C2502       C  0.94175293  0.67133744  0.61586146    -0.02500
Br2503     Br  0.93569179  0.65092813  0.62310075    -0.01000
Br2504     Br  0.91774341  0.66689359  0.59254211    -0.01100
Br2505     Br  0.97476876  0.70586057  0.62815992    -0.01000
Br2506     Br  0.95548102  0.72221499  0.59897183    -0.01000
C2507       C  0.84866742  0.77134645  0.52428195    -0.02200
C2508       C  0.85321640  0.75593454  0.52146042     0.07500
C2509       C  0.84554142  0.74713824  0.50998795    -0.02300
C2510       C  0.83460159  0.75430591  0.50009186    -0.02300
C2511       C  0.83140218  0.77039520  0.50170967     0.07700
C2512       C  0.83783632  0.77861396  0.51443485    -0.02500
Br2513     Br  0.83234654  0.80004184  0.51824680    -0.01000
Br2514     Br  0.85800899  0.78268538  0.54125154    -0.01100
Br2515     Br  0.82555347  0.74227317  0.48340211    -0.01000
Br2516     Br  0.85104776  0.72557688  0.50710581    -0.01000
C2517       C  0.96218751  0.71316271  0.32735841    -0.02200
C2518       C  0.94832135  0.70669831  0.33327608     0.07500
C2519       C  0.94347575  0.69187249  0.32830886    -0.02300
C2520       C  0.95300572  0.68307534  0.31828809    -0.02300
C2521       C  0.96757131  0.68898696  0.31336945     0.07700
C2522       C  0.97187629  0.70433415  0.31757223    -0.02500
Br2523     Br  0.99174549  0.71295994  0.31140289    -0.01000
Br2524     Br  0.96812368  0.73405630  0.33316577    -0.01100
Br2525     Br  0.94597539  0.66297845  0.31130727    -0.01000
Br2526     Br  0.92424440  0.68325475  0.33612628    -0.01000
C2527       C  0.84856130  0.76935109  0.40849000    -0.02200
C2528       C  0.86317834  0.76459990  0.41424196     0.07500
C2529       C  0.86495854  0.76183538  0.43037937    -0.02300
C2530       C  0.85316444  0.76616612  0.44080949    -0.02300
C2531       C  0.83896932  0.77198565  0.43515756     0.07700
C2532       C  0.83634653  0.77269998  0.41896460    -0.02500
Br2533     Br  0.81638690  0.77933243  0.41124093    -0.01000
Br2534     Br  0.84559760  0.77248890  0.38645945    -0.01100
Br2535     Br  0.85680213  0.76491784  0.46295371    -0.01000
Br2536     Br  0.88338262  0.75173459  0.43833856    -0.01000
C2537       C  0.71110612  0.01514206  0.59543733    -0.02200
C2538       C  0.72205684  0.02566652  0.60172066     0.07500
C2539       C  0.72276280  0.02767524  0.61798490    -0.02300
C2540       C  0.71302440  0.01883686  0.62794714    -0.02300
C2541       C  0.70218655  0.00806125  0.62170689     0.07700
C2542       C  0.70123955  0.00640707  0.60530478    -0.02500
Br2543     Br  0.68736826  0.99129224  0.59601129    -0.01000
Br2544     Br  0.70949448  0.01270877  0.57311512    -0.01100
Br2545     Br  0.71464407  0.02175169  0.65018022    -0.01000
Br2546     Br  0.73760699  0.04211906  0.62666622    -0.01000
C2547       C  0.79262663  0.12425023  0.53363682    -0.02200
C2548       C  0.77692088  0.12215504  0.52966564     0.07500
C2549       C  0.76958749  0.13308876  0.51994894    -0.02300
C2550       C  0.77823421  0.14532868  0.51309332    -0.02300
C2551       C  0.79465301  0.14600959  0.51507455     0.07700
C2552       C  0.80149755  0.13607093  0.52643883    -0.02500
Br2553     Br  0.82305652  0.13814718  0.53246085    -0.01000
Br2554     Br  0.80229546  0.10992672  0.54803358    -0.01100
Br2555     Br  0.76712748  0.16054356  0.50081108    -0.01000
Br2556     Br  0.74781327  0.13048313  0.51516037    -0.01000
C2557       C  0.70252105  0.03423852  0.33691079    -0.02200
C2558       C  0.70808247  0.02559801  0.32393970     0.07500
C2559       C  0.72420087  0.02668464  0.32013451    -0.02300
C2560       C  0.73452670  0.03469981  0.33009462    -0.02300
C2561       C  0.72901737  0.04166765  0.34378047     0.07700
C2562       C  0.71300281  0.04191361  0.34687564    -0.02500
Br2563     Br  0.70558218  0.05213817  0.36546954    -0.01000
Br2564     Br  0.68059856  0.03606265  0.34149677    -0.01100
Br2565     Br  0.75656306  0.03531117  0.32572938    -0.01000
Br2566     Br  0.73297439  0.01663735  0.30203634    -0.01000
C2567       C  0.78736270  0.12335706  0.43551329    -0.02200
C2568       C  0.79874674  0.11566989  0.42661002     0.07500
C2569       C  0.81452644  0.11969071  0.42832931    -0.02300
C2570       C  0.81905017  0.13081794  0.43940545    -0.02300
C2571       C  0.80776487  0.13779496  0.44910774     0.07700
C2572       C  0.79186664  0.13413944  0.44699404    -0.02500
Br2573     Br  0.77631289  0.14237907  0.46093318    -0.01000
Br2574     Br  0.76564667  0.11836246  0.43273369    -0.01100
Br2575     Br  0.84082466  0.13628538  0.44111090    -0.01000
Br2576     Br  0.83001979  0.10964971  0.41557217    -0.01000
C2577       C  0.70945014  0.94796465  0.61439297    -0.02200
C2578       C  0.69427299  0.94482578  0.61990869     0.07500
C2579       C  0.68601300  0.93187493  0.61405071    -0.02300
C2580       C  0.69276751  0.92231334  0.60260861    -0.02300
C2581       C  0.70775351  0.92566078  0.59694130     0.07700
C2582       C  0.71618176  0.93835068  0.60302374    -0.02500
Br2583     Br  0.73690258  0.94277552  0.59551191    -0.01000
Br2584     Br  0.72061511  0.96627607  0.62125109    -0.01100
Br2585     Br  0.68124700  0.90503771  0.59403612    -0.01000
Br2586     Br  0.66547793  0.92711410  0.62158304    -0.01000
C2587       C  0.77659313  0.82801664  0.52280971    -0.02200
C2588       C  0.77072152  0.84216595  0.51690582     0.07500
C2589       C  0.76925538  0.84413295  0.50062246    -0.02300
C2590       C  0.77513308  0.83280144  0.49039603    -0.02300
C2591       C  0.78227630  0.81930480  0.49630369     0.07700
C2592       C  0.78224713  0.81655338  0.51249449    -0.02500
Br2593     Br  0.79048212  0.79732125  0.52048315    -0.01000
Br2594     Br  0.77803280  0.82483892  0.54499009    -0.01100
Br2595     Br  0.77379974  0.83591715  0.46817903    -0.01000
Br2596     Br  0.75922528  0.86239446  0.49218718    -0.01000
C2597       C  0.72190021  0.95174203  0.34372775    -0.02200
C2598       C  0.71569747  0.93649604  0.34405484     0.07500
C2599       C  0.70449431  0.93210083  0.33290424    -0.02300
C2600       C  0.69865554  0.94326833  0.32238464    -0.02300
C2601       C  0.70342247  0.95891704  0.32353016     0.07700
C2602       C  0.71534889  0.96306587  0.33392212    -0.02500
Br2603     Br  0.72195939  0.98448585  0.33549840    -0.01000
Br2604     Br  0.73949975  0.95714675  0.35661919    -0.01100
Br2605     Br  0.68382920  0.93734440  0.30666342    -0.01000
Br2606     Br  0.69624131  0.91122374  0.33279227    -0.01000
C2607       C  0.79394262  0.83892354  0.40998301    -0.02200
C2608       C  0.77778032  0.84124430  0.40961899     0.07500
C2609       C  0.76784077  0.83042602  0.41693195    -0.02300
C2610       C  0.77411090  0.81872610  0.42659896    -0.02300
C2611       C  0.79041654  0.81799109  0.42894693     0.07700
C2612       C  0.80027040  0.82716197  0.41940118    -0.02500
Br2613     Br  0.82247441  0.82370132  0.41902600    -0.01000
Br2614     Br  0.80741485  0.85256327  0.39818420    -0.01100
Br2615     Br  0.76004301  0.80474510  0.43727014    -0.01000
Br2616     Br  0.74561592  0.83260760  0.41486408    -0.01000
loop_ 
_geom_bond_atom_site_label_1 
_geom_bond_atom_site_label_2 
_geom_bond_distance 
_geom_bond_site_symmetry_2 
_ccdc_geom_bond_type 
N1            N2   1.324       .  A
N1            C5   1.352       .  A
N1           Cu9   2.090       .  S
N2            C3   1.338       .  A
N2           Cu8   2.062       .  S
C3            C4   1.376       .  A
C3            H6   1.082       .  S
C4            C5   1.387       .  A
C4         C2608   1.474       .  S
C5            H7   1.082       .  S
Cu8          N11   2.061       .  S
Cu9          N19   2.090       .  S
Cu10         N12   2.071       .  S
Cu10         N18   2.069       .  S
N11          N12   1.319       .  A
N11          C15   1.346       .  A
N12          C13   1.344       .  A
C13          C14   1.385       .  A
C13          H16   1.082       .  S
C14          C15   1.383       .  A
C14         C107   1.469       .  S
C15          H17   1.082       .  S
N18          N19   1.324       .  A
N18          C22   1.339       .  A
N19          C20   1.351       .  A
C20          C21   1.388       .  A
C20          H23   1.082       .  S
C21          C22   1.379       .  A
C21        C2598   1.481       .  S
C22          H24   1.083       .  S
N25          N26   1.324       .  A
N25          C29   1.352       .  A
N25         Cu33   2.100       .  S
N26          C27   1.341       .  A
N26         Cu32   2.068       .  S
C27          C28   1.380       .  A
C27          H30   1.082       .  S
C28          C29   1.391       .  A
C28        C2588   1.487       .  S
C29          H31   1.082       .  S
Cu32         N35   2.070       .  S
Cu33         N43   2.098       .  S
Cu34         N36   2.042       .  S
Cu34         N42   2.041       .  S
N35          N36   1.320       .  A
N35          C39   1.345       .  A
N36          C37   1.340       .  A
C37          C38   1.377       .  A
C37          H40   1.083       .  S
C38          C39   1.385       .  A
C38         C110   1.460       .  S
C39          H41   1.082       .  S
N42          N43   1.322       .  A
N42          C46   1.339       .  A
N43          C44   1.351       .  A
C44          C45   1.389       .  A
C44          H47   1.082       .  S
C45          C46   1.374       .  A
C45        C2581   1.475       .  S
C46          H48   1.082       .  S
N49          N50   1.327       .  A
N49          C53   1.351       .  A
N49         Cu57   2.101       .  S
N50          C51   1.339       .  A
N50         Cu56   2.065       .  S
C51          C52   1.374       .  A
C51          H54   1.082       .  S
C52          C53   1.387       .  A
C52        C2568   1.475       .  S
C53          H55   1.082       .  S
Cu56         N59   2.063       .  S
Cu57         N67   2.099       .  S
Cu58         N60   2.037       .  S
Cu58         N66   2.039       .  S
N59          N60   1.318       .  A
N59          C63   1.346       .  A
N60          C61   1.338       .  A
C61          C62   1.375       .  A
C61          H64   1.082       .  S
C62          C63   1.384       .  A
C62         C109   1.455       .  S
C63          H65   1.083       .  S
N66          N67   1.321       .  A
N66          C70   1.337       .  A
N67          C68   1.353       .  A
C68          C69   1.391       .  A
C68          H71   1.081       .  S
C69          C70   1.373       .  A
C69        C2561   1.474       .  S
C70          H72   1.082       .  S
N73          N74   1.325       .  A
N73          C77   1.354       .  A
N73         Cu81   2.113       .  S
N74          C75   1.341       .  A
N74         Cu80   2.070       .  S
C75          C76   1.377       .  A
C75          H78   1.082       .  S
C76          C77   1.391       .  A
C76        C2548   1.482       .  S
C77          H79   1.082       .  S
Cu80         N83   2.070       .  S
Cu81         N91   2.113       .  S
Cu82         N84   2.070       .  S
Cu82         N90   2.070       .  S
N83          N84   1.320       .  A
N83          C87   1.345       .  A
N84          C85   1.346       .  A
C85          C86   1.382       .  A
C85          H88   1.082   1_545  S
C86          C87   1.383       .  A
C86         C108   1.464       .  S
C87          H89   1.082       .  S
N90          N91   1.324       .  A
N90          C94   1.343       .  A
N91          C92   1.354       .  A
C92          C93   1.393       .  A
C92          H95   1.082       .  S
C93          C94   1.380       .  A
C93        C2538   1.491       .  S
C94          H96   1.082       .  S
O97        Cu105   1.995       .  S
O97         C107   1.275       .  A
O98        Cu105   2.003       .  S
O98         C108   1.276   1_565  A
O99        Cu105   1.993       .  S
O99         C109   1.276   1_565  A
O100       Cu105   2.003       .  S
O100        C110   1.278       .  A
O101       Cu106   1.994       .  S
O101        C110   1.275       .  A
O102       Cu106   2.003       .  S
O102        C109   1.275   1_565  A
O103       Cu106   2.023       .  S
O103        C108   1.279   1_565  A
O104       Cu106   2.030       .  S
O104        C107   1.281       .  A
Cu105      Cu106   2.378       .  S
N111        N112   1.325       .  A
N111        C115   1.351       .  A
N111       Cu119   2.097       .  S
N112        C113   1.340       .  A
N112       Cu118   2.071       .  S
C113        C114   1.380       .  A
C113        H116   1.082       .  S
C114        C115   1.389       .  A
C114       C2528   1.486       .  S
C115        H117   1.082       .  S
Cu118       N121   2.073       .  S
Cu119       N129   2.094       .  S
Cu120       N122   2.047       .  S
Cu120       N128   2.048       .  S
N121        N122   1.320       .  A
N121        C125   1.349       .  A
N122        C123   1.338       .  A
C123        C124   1.378       .  A
C123        H126   1.082       .  S
C124        C125   1.386       .  A
C124        C217   1.464       .  S
C125        H127   1.082       .  S
N128        N129   1.321       .  A
N128        C132   1.339       .  A
N129        C130   1.352       .  A
C130        C131   1.390       .  A
C130        H133   1.082       .  S
C131        C132   1.376       .  A
C131       C2518   1.478       .  S
C132        H134   1.082       .  S
N135        N136   1.323       .  A
N135        C139   1.350       .  A
N135       Cu143   2.082       .  S
N136        C137   1.340       .  A
N136       Cu142   2.063       .  S
C137        C138   1.377       .  A
C137        H140   1.082       .  S
C138        C139   1.385       .  A
C138       C2508   1.473       .  S
C139        H141   1.082       .  S
Cu142       N145   2.063       .  S
Cu143       N153   2.083       .  S
Cu144       N146   2.061       .  S
Cu144       N152   2.064       .  S
N145        N146   1.320       .  A
N145        C149   1.341       .  A
N146        C147   1.346       .  A
C147        C148   1.382       .  A
C147        H150   1.082       .  S
C148        C149   1.381       .  A
C148        C220   1.462       .  S
C149        H151   1.083       .  S
N152        N153   1.324       .  A
N152        C156   1.342       .  A
N153        C154   1.348       .  A
C154        C155   1.383       .  A
C154        H157   1.082       .  S
C155        C156   1.377       .  A
C155       C2498   1.472       .  S
C156        H158   1.082       .  S
N159        N160   1.326       .  A
N159        C163   1.354       .  A
N159       Cu167   2.110       .  S
N160        C161   1.337       .  A
N160       Cu166   2.057       .  S
C161        C162   1.372       .  A
C161        H164   1.083       .  S
C162        C163   1.389       .  A
C162       C2488   1.475       .  S
C163        H165   1.082       .  S
Cu166       N169   2.052       .  S
Cu167       N177   2.109       .  S
Cu168       N170   2.048       .  S
Cu168       N176   2.045       .  S
N169        N170   1.317       .  A
N169        C173   1.345       .  A
N170        C171   1.341       .  A
C171        C172   1.379       .  A
C171        H174   1.083       .  S
C172        C173   1.382       .  A
C172        C219   1.457       .  S
C173        H175   1.082       .  S
N176        N177   1.322       .  A
N176        C180   1.337       .  A
N177        C178   1.354       .  A
C178        C179   1.394       .  A
C178        H181   1.081       .  S
C179        C180   1.375       .  A
C179       C2478   1.484       .  S
C180        H182   1.083       .  S
N183        N184   1.324       .  A
N183        C187   1.350       .  A
N183       Cu191   2.098       .  S
N184        C185   1.342       .  A
N184       Cu190   2.071       .  S
C185        C186   1.379       .  A
C185        H188   1.082       .  S
C186        C187   1.387       .  A
C186       C2471   1.478       .  S
C187        H189   1.082       .  S
Cu190       N193   2.070       .  S
Cu191       N201   2.098       .  S
Cu192       N194   2.076       .  S
Cu192       N200   2.077       .  S
N193        N194   1.322       .  A
N193        C197   1.346       .  A
N194        C195   1.345       .  A
C195        C196   1.381       .  A
C195        H198   1.083       .  S
C196        C197   1.382       .  A
C196        C218   1.463       .  S
C197        H199   1.083       .  S
N200        N201   1.322       .  A
N200        C204   1.343       .  A
N201        C202   1.352       .  A
C202        C203   1.391       .  A
C202        H205   1.082       .  S
C203        C204   1.384       .  A
C203       C2458   1.490       .  S
C204        H206   1.082       .  S
O207       Cu215   2.019       .  S
O207        C217   1.278       .  A
O208       Cu215   2.021   1_455  S
O208        C218   1.279       .  A
O209       Cu215   2.005   1_455  S
O209        C219   1.275       .  A
O210       Cu215   1.994       .  S
O210        C220   1.275       .  A
O211       Cu216   2.014       .  S
O211        C220   1.278       .  A
O212       Cu216   2.000   1_455  S
O212        C219   1.277       .  A
O213       Cu216   2.000   1_455  S
O213        C218   1.275       .  A
O214       Cu216   1.989       .  S
O214        C217   1.276       .  A
Cu215      Cu216   2.375       .  S
N221        N222   1.326       .  A
N221        C225   1.353       .  A
N221       Cu229   2.112       .  S
N222        C223   1.342       .  A
N222       Cu228   2.069       .  S
C223        C224   1.378       .  A
C223        H226   1.082       .  S
C224        C225   1.390       .  A
C224       C2448   1.485       .  S
C225        H227   1.082       .  S
Cu228       N231   2.066       .  S
Cu229       N239   2.110       .  S
Cu230       N232   2.047       .  S
Cu230       N238   2.048       .  S
N231        N232   1.320       .  A
N231        C235   1.346       .  A
N232        C233   1.339       .  A
C233        C234   1.377       .  A
C233        H236   1.082       .  S
C234        C235   1.384       .  A
C234        C327   1.458       .  S
C235        H237   1.082       .  S
N238        N239   1.322       .  A
N238        C242   1.340       .  A
N239        C240   1.354       .  A
C240        C241   1.394       .  A
C240        H243   1.082       .  S
C241        C242   1.377       .  A
C241       C2438   1.485       .  S
C242        H244   1.082       .  S
N245        N246   1.322       .  A
N245        C249   1.352       .  A
N245       Cu253   2.094       .  S
N246        C247   1.341       .  A
N246       Cu252   2.072       .  S
C247        C248   1.383       .  A
C247        H250   1.082       .  S
C248        C249   1.392       .  A
C248       C2431   1.491       .  S
C249        H251   1.082       .  S
Cu252       N255   2.074       .  S
Cu253       N263   2.095       .  S
Cu254       N256   2.063       .  S
Cu254       N262   2.056       .  S
N255        N256   1.322       .  A
N255        C259   1.346       .  A
N256        C257   1.342       .  A
C257        C258   1.382       .  A
C257        H260   1.082       .  S
C258        C259   1.384       .  A
C258        C330   1.467       .  S
C259        H261   1.082       .  S
N262        N263   1.321       .  A
N262        C266   1.341       .  A
N263        C264   1.350       .  A
C264        C265   1.392       .  A
C264        H267   1.082       .  S
C265        C266   1.381       .  A
C265       C2418   1.491       .  S
C266        H268   1.081       .  S
N269        N270   1.322       .  A
N269        C273   1.349       .  A
N269       Cu277   2.082       .  S
N270        C271   1.340       .  A
N270       Cu276   2.064       .  S
C271        C272   1.380       .  A
C271        H274   1.082       .  S
C272        C273   1.387       .  A
C272       C2408   1.481       .  S
C273        H275   1.082       .  S
Cu276       N279   2.062       .  S
Cu277       N287   2.081       .  S
Cu278       N280   2.072       .  S
Cu278       N286   2.073       .  S
N279        N280   1.321       .  A
N279        C283   1.346       .  A
N280        C281   1.343       .  A
C281        C282   1.383       .  A
C281        H284   1.082       .  S
C282        C283   1.382       .  A
C282        C329   1.466       .  S
C283        H285   1.082       .  S
N286        N287   1.323       .  A
N286        C290   1.343       .  A
N287        C288   1.348       .  A
C288        C289   1.384       .  A
C288        H291   1.082       .  S
C289        C290   1.381       .  A
C289       C2398   1.477       .  S
C290        H292   1.082       .  S
N293        N294   1.323       .  A
N293        C297   1.355       .  A
N293       Cu301   2.107       .  S
N294        C295   1.338       .  A
N294       Cu300   2.059       .  S
C295        C296   1.378       .  A
C295        H298   1.082       .  S
C296        C297   1.394       .  A
C296       C2388   1.487       .  S
C297        H299   1.082       .  S
Cu300       N303   2.061       .  S
Cu301       N311   2.108       .  S
Cu302       N304   2.056       .  S
Cu302       N310   2.057       .  S
N303        N304   1.319       .  A
N303        C307   1.343       .  A
N304        C305   1.344       .  A
C305        C306   1.382       .  A
C305        H308   1.082       .  S
C306        C307   1.382       .  A
C306        C328   1.462       .  S
C307        H309   1.082       .  S
N310        N311   1.324       .  A
N310        C314   1.339       .  A
N311        C312   1.354       .  A
C312        C313   1.391       .  A
C312        H315   1.082       .  S
C313        C314   1.374       .  A
C313       C2378   1.478       .  S
C314        H316   1.082       .  S
O317       Cu325   1.999       .  S
O317        C327   1.275       .  A
O318       Cu325   2.000       .  S
O318        C328   1.276   1_565  A
O319       Cu325   2.023       .  S
O319        C329   1.279   1_565  A
O320       Cu325   2.021       .  S
O320        C330   1.279       .  A
O321       Cu326   1.993       .  S
O321        C330   1.275       .  A
O322       Cu326   1.992       .  S
O322        C329   1.275   1_565  A
O323       Cu326   2.006       .  S
O323        C328   1.277   1_565  A
O324       Cu326   1.997       .  S
O324        C327   1.277       .  A
Cu325      Cu326   2.378       .  S
N331        N332   1.321       .  A
N331        C335   1.348       .  A
N331       Cu339   2.076       .  S
N332        C333   1.339       .  A
N332       Cu338   2.046       .  S
C333        C334   1.377       .  A
C333        H336   1.082       .  S
C334        C335   1.387       .  A
C334       C2358   1.476       .  S
C335        H337   1.082       .  S
Cu338       N341   2.047       .  S
Cu339       N349   2.077       .  S
Cu340       N342   2.068       .  S
Cu340       N348   2.068       .  S
N341        N342   1.321       .  A
N341        C345   1.340       .  A
N342        C343   1.344       .  A
C343        C344   1.381       .  A
C343        H346   1.082       .  S
C344        C345   1.376       .  A
C344        C439   1.453       .  S
C345        H347   1.082       .  S
N348        N349   1.322       .  A
N348        C352   1.342       .  A
N349        C350   1.347       .  A
C350        C351   1.386       .  A
C350        H353   1.082       .  S
C351        C352   1.383       .  A
C351       C2368   1.484       .  S
C352        H354   1.082       .  S
N355        N356   1.325       .  A
N355        C359   1.350       .  A
N355       Cu363   2.095       .  S
N356        C357   1.341       .  A
N356       Cu362   2.068       .  S
C357        C358   1.377       .  A
C357        H360   1.082       .  S
C358        C359   1.385       .  A
C358       C2351   1.475       .  S
C359        H361   1.082       .  S
Cu362       N365   2.067       .  S
Cu363       N373   2.095       .  S
Cu364       N366   2.051       .  S
Cu364       N372   2.051       .  S
N365        N366   1.319       .  A
N365        C369   1.345       .  A
N366        C367   1.341       .  A
C367        C368   1.379       .  A
C367        H370   1.082       .  S
C368        C369   1.384       .  A
C368        C437   1.461       .  S
C369        H371   1.082       .  S
N372        N373   1.322       .  A
N372        C376   1.338       .  A
N373        C374   1.352       .  A
C374        C375   1.390       .  A
C374        H377   1.082       .  S
C375        C376   1.375       .  A
C375       C2338   1.477       .  S
C376        H378   1.082       .  S
N379        N380   1.324       .  A
N379        C383   1.348       .  A
N379       Cu387   2.071       .  S
N380        C381   1.339       .  A
N380       Cu386   2.071       .  S
C381        C382   1.381       .  A
C381        H384   1.083       .  S
C382        C383   1.384       .  A
C382       C2321   1.480       .  S
C383        H385   1.082       .  S
Cu386       N389   2.073       .  S
Cu387       N397   2.069       .  S
Cu388       N390   2.058       .  S
Cu388       N396   2.059       .  S
N389        N390   1.321       .  A
N389        C393   1.348       .  A
N390        C391   1.340       .  A
C391        C392   1.380       .  A
C391        H394   1.082       .  S
C392        C393   1.385       .  A
C392        C438   1.466       .  S
C393        H395   1.082       .  S
N396        N397   1.321       .  A
N396        C400   1.340       .  A
N397        C398   1.348       .  A
C398        C399   1.382       .  A
C398        H401   1.082       .  S
C399        C400   1.378       .  A
C399       C2331   1.469       .  S
C400        H402   1.082       .  S
N403        N404   1.322       .  A
N403        C407   1.349       .  A
N403       Cu411   2.081       .  S
N404        C405   1.338       .  A
N404       Cu410   2.052       .  S
C405        C406   1.378       .  A
C405        H408   1.082       .  S
C406        C407   1.387       .  A
C406       C2311   1.478       .  S
C407        H409   1.081       .  S
Cu410       N413   2.054       .  S
Cu411       N421   2.082       .  S
Cu412       N414   2.063       .  S
Cu412       N420   2.064       .  S
N413        N414   1.320       .  A
N413        C417   1.340       .  A
N414        C415   1.345       .  A
C415        C416   1.383       .  A
C415        H418   1.082       .  S
C416        C417   1.380       .  A
C416        C440   1.461       .  S
C417        H419   1.083       .  S
N420        N421   1.323       .  A
N420        C424   1.340       .  A
N421        C422   1.350       .  A
C422        C423   1.386       .  A
C422        H425   1.082       .  S
C423        C424   1.377       .  A
C423       C2298   1.476       .  S
C424        H426   1.082       .  S
O427       Cu435   2.003       .  S
O427        C437   1.277       .  A
O428       Cu435   2.023   1_545  S
O428        C438   1.279       .  A
O429       Cu435   2.007       .  S
O429        C439   1.276       .  A
O430       Cu435   2.007   1_545  S
O430        C440   1.277       .  A
O431       Cu436   1.991   1_545  S
O431        C440   1.276       .  A
O432       Cu436   1.986       .  S
O432        C439   1.274       .  A
O433       Cu436   1.989   1_545  S
O433        C438   1.276       .  A
O434       Cu436   2.003       .  S
O434        C437   1.276       .  A
Cu435      Cu436   2.377       .  S
N441        N442   1.325       .  A
N441        C445   1.350       .  A
N441       Cu449   2.093       .  S
N442        C443   1.340       .  A
N442       Cu448   2.064       .  S
C443        C444   1.377       .  A
C443        H446   1.082       .  S
C444        C445   1.386       .  A
C444       C2278   1.475       .  S
C445        H447   1.082       .  S
Cu448       N451   2.062       .  S
Cu449       N459   2.093       .  S
Cu450       N452   2.048       .  S
Cu450       N458   2.049       .  S
N451        N452   1.319       .  A
N451        C455   1.345       .  A
N452        C453   1.340       .  A
C453        C454   1.377       .  A
C453        H456   1.083       .  S
C454        C455   1.383       .  A
C454        C550   1.456       .  S
C455        H457   1.082       .  S
N458        N459   1.323       .  A
N458        C462   1.339       .  A
N459        C460   1.350       .  A
C460        C461   1.387       .  A
C460        H463   1.082       .  S
C461        C462   1.375       .  A
C461       C2288   1.473       .  S
C462        H464   1.082       .  S
N465        N466   1.323       .  A
N465        C469   1.350       .  A
N465       Cu473   2.094       .  S
N466        C467   1.341       .  A
N466       Cu472   2.067       .  S
C467        C468   1.380       .  A
C467        H470   1.082       .  S
C468        C469   1.389       .  A
C468       C2258   1.481       .  S
C469        H471   1.082       .  S
Cu472       N475   2.069       .  S
Cu473       N483   2.094       .  S
Cu474       N476   2.062       .  S
Cu474       N482   2.062       .  S
N475        N476   1.321       .  A
N475        C479   1.344       .  A
N476        C477   1.344       .  A
C477        C478   1.380       .  A
C477        H480   1.082       .  S
C478        C479   1.381       .  A
C478        C548   1.459       .  S
C479        H481   1.082       .  S
N482        N483   1.323       .  A
N482        C486   1.341       .  A
N483        C484   1.351       .  A
C484        C485   1.389       .  A
C484        H487   1.082       .  S
C485        C486   1.377       .  A
C485       C2268   1.479       .  S
C486        H488   1.082       .  S
N489        N490   1.324       .  A
N489        C493   1.351       .  A
N489       Cu497   2.093       .  S
N490        C491   1.340       .  A
N490       Cu496   2.065       .  S
C491        C492   1.376       .  A
C491        H494   1.082       .  S
C492        C493   1.387       .  A
C492       C2238   1.474       .  S
C493        H495   1.082       .  S
Cu496       N499   2.064       .  S
Cu497       N507   2.092       .  S
Cu498       N500   2.052       .  S
Cu498       N506   2.052       .  S
N499        N500   1.319       .  A
N499        C503   1.344       .  A
N500        C501   1.342       .  A
C501        C502   1.381       .  A
C501        H504   1.082       .  S
C502        C503   1.383       .  A
C502        C547   1.463       .  S
C503        H505   1.082       .  S
N506        N507   1.323       .  A
N506        C510   1.338       .  A
N507        C508   1.352       .  A
C508        C509   1.388       .  A
C508        H511   1.082       .  S
C509        C510   1.374       .  A
C509       C2248   1.473       .  S
C510        H512   1.082       .  S
N513        N514   1.321       .  A
N513        C517   1.351       .  A
N513       Cu521   2.098       .  S
N514        C515   1.341       .  A
N514       Cu520   2.050       .  S
C515        C516   1.379       .  A
C515        H518   1.082       .  S
C516        C517   1.390       .  A
C516       C2221   1.480       .  S
C517        H519   1.082       .  S
Cu520       N523   2.053       .  S
Cu521       N531   2.098       .  S
Cu522       N524   2.069       .  S
Cu522       N530   2.063       .  S
N523        N524   1.322       .  A
N523        C527   1.340       .  A
N524        C525   1.344       .  A
C525        C526   1.383       .  A
C525        H528   1.082       .  S
C526        C527   1.378       .  A
C526        C549   1.460       .  S
C527        H529   1.082       .  S
N530        N531   1.322       .  A
N530        C534   1.340       .  A
N531        C532   1.352       .  A
C532        C533   1.392       .  A
C532        H535   1.081       .  S
C533        C534   1.381       .  A
C533       C2228   1.489       .  S
C534        H536   1.081       .  S
O537       Cu545   2.005   1_554  S
O537        C547   1.277       .  A
O538       Cu545   2.014       .  S
O538        C548   1.278       .  A
O539       Cu545   2.003   1_554  S
O539        C549   1.278       .  A
O540       Cu545   1.992       .  S
O540        C550   1.274       .  A
O541       Cu546   2.004       .  S
O541        C550   1.278       .  A
O542       Cu546   1.995   1_554  S
O542        C549   1.275       .  A
O543       Cu546   1.999       .  S
O543        C548   1.275       .  A
O544       Cu546   2.003   1_554  S
O544        C547   1.277       .  A
Cu545      Cu546   2.379       .  S
N551        N552   1.322       .  A
N551        C555   1.350       .  A
N551       Cu559   2.083       .  S
N552        C553   1.340       .  A
N552       Cu558   2.062       .  S
C553        C554   1.378       .  A
C553        H556   1.082       .  S
C554        C555   1.388       .  A
C554       C2198   1.475       .  S
C555        H557   1.082       .  S
Cu558       N561   2.063       .  S
Cu559       N569   2.084       .  S
Cu560       N562   2.070       .  S
Cu560       N568   2.069       .  S
N561        N562   1.321       .  A
N561        C565   1.343       .  A
N562        C563   1.346       .  A
C563        C564   1.384       .  A
C563        H566   1.082       .  S
C564        C565   1.382       .  A
C564        C660   1.467       .  S
C565        H567   1.083       .  S
N568        N569   1.323       .  A
N568        C572   1.341       .  A
N569        C570   1.348       .  A
C570        C571   1.388       .  A
C570        H573   1.081       .  S
C571        C572   1.382       .  A
C571       C2208   1.487       .  S
C572        H574   1.082       .  S
N575        N576   1.321       .  A
N575        C579   1.351       .  A
N575       Cu583   2.092       .  S
N576        C577   1.339       .  A
N576       Cu582   2.052       .  S
C577        C578   1.378       .  A
C577        H580   1.082       .  S
C578        C579   1.390       .  A
C578       C2178   1.481       .  S
C579        H581   1.081       .  S
Cu582       N585   2.050       .  S
Cu583       N593   2.093       .  S
Cu584       N586   2.057       .  S
Cu584       N592   2.058       .  S
N585        N586   1.320       .  A
N585        C589   1.339       .  A
N586        C587   1.344       .  A
C587        C588   1.381       .  A
C587        H590   1.082       .  S
C588        C589   1.378       .  A
C588        C658   1.456       .  S
C589        H591   1.083       .  S
N592        N593   1.324       .  A
N592        C596   1.340       .  A
N593        C594   1.350       .  A
C594        C595   1.385       .  A
C594        H597   1.082       .  S
C595        C596   1.376       .  A
C595       C2188   1.473       .  S
C596        H598   1.082       .  S
N599        N600   1.323       .  A
N599        C603   1.349       .  A
N599       Cu607   2.098       .  S
N600        C601   1.343       .  A
N600       Cu606   2.069       .  S
C601        C602   1.382       .  A
C601        H604   1.082       .  S
C602        C603   1.389       .  A
C602       C2161   1.489       .  S
C603        H605   1.082       .  S
Cu606       N609   2.069       .  S
Cu607       N617   2.096       .  S
Cu608       N610   2.052       .  S
Cu608       N616   2.052       .  S
N609        N610   1.321       .  A
N609        C613   1.344       .  A
N610        C611   1.341       .  A
C611        C612   1.377       .  A
C611        H614   1.082       .  S
C612        C613   1.382       .  A
C612        C657   1.455       .  S
C613        H615   1.082       .  S
N616        N617   1.321       .  A
N616        C620   1.340       .  A
N617        C618   1.351       .  A
C618        C619   1.393       .  A
C618        H621   1.082       .  S
C619        C620   1.379       .  A
C619       C2171   1.486       .  S
C620        H622   1.082       .  S
N623        N624   1.323       .  A
N623        C627   1.353       .  A
N623       Cu631   2.099       .  S
N624        C625   1.339       .  A
N624       Cu630   2.058       .  S
C625        C626   1.376       .  A
C625        H628   1.082       .  S
C626        C627   1.390       .  A
C626       C2138   1.478       .  S
C627        H629   1.082       .  S
Cu630       N633   2.059       .  S
Cu631       N641   2.101       .  S
Cu632       N634   2.072       .  S
Cu632       N640   2.072       .  S
N633        N634   1.319       .  A
N633        C637   1.341       .  A
N634        C635   1.350       .  A
C635        C636   1.387       .  A
C635        H638   1.082       .  S
C636        C637   1.381       .  A
C636        C659   1.469   1_545  S
C637        H639   1.082       .  S
N640        N641   1.326       .  A
N640        C644   1.339       .  A
N641        C642   1.353       .  A
C642        C643   1.389       .  A
C642        H645   1.082       .  S
C643        C644   1.378       .  A
C643       C2148   1.483       .  S
C644        H646   1.083       .  S
O647       Cu655   2.004       .  S
O647        C657   1.276   1_565  A
O648       Cu655   2.006       .  S
O648        C658   1.277       .  A
O649       Cu655   2.032       .  S
O649        C659   1.280       .  A
O650       Cu655   2.011       .  S
O650        C660   1.277       .  A
O651       Cu656   2.006       .  S
O651        C660   1.278       .  A
O652       Cu656   1.996       .  S
O652        C659   1.276       .  A
O653       Cu656   1.984       .  S
O653        C658   1.275       .  A
O654       Cu656   1.992       .  S
O654        C657   1.275   1_565  A
Cu655      Cu656   2.377       .  S
N661        N662   1.323       .  A
N661        C665   1.352       .  A
N661       Cu669   2.097       .  S
N662        C663   1.339       .  A
N662       Cu668   2.058       .  S
C663        C664   1.378       .  A
C663        H666   1.082       .  S
C664        C665   1.391       .  A
C664       C2118   1.484       .  S
C665        H667   1.082       .  S
Cu668       N671   2.057       .  S
Cu669       N679   2.097       .  S
Cu670       N672   2.057       .  S
Cu670       N678   2.056       .  S
N671        N672   1.320       .  A
N671        C675   1.344       .  A
N672        C673   1.341       .  A
C673        C674   1.381       .  A
C673        H676   1.082       .  S
C674        C675   1.382       .  A
C674        C770   1.461       .  S
C675        H677   1.083       .  S
N678        N679   1.323       .  A
N678        C682   1.340       .  A
N679        C680   1.351       .  A
C680        C681   1.389       .  A
C680        H683   1.082       .  S
C681        C682   1.378       .  A
C681       C2128   1.481       .  S
C682        H684   1.082       .  S
N685        N686   1.321       .  A
N685        C689   1.353       .  A
N685       Cu693   2.093       .  S
N686        C687   1.338       .  A
N686       Cu692   2.051       .  S
C687        C688   1.378       .  A
C687        H690   1.082       .  S
C688        C689   1.391       .  A
C688       C2098   1.481       .  S
C689        H691   1.081       .  S
Cu692       N695   2.053       .  S
Cu693       N703   2.097       .  S
Cu694       N696   2.060       .  S
Cu694       N702   2.061       .  S
N695        N696   1.319       .  A
N695        C699   1.337       .  A
N696        C697   1.348       .  A
C697        C698   1.385       .  A
C697        H700   1.082       .  S
C698        C699   1.379       .  A
C698        C767   1.463       .  S
C699        H701   1.082       .  S
N702        N703   1.325       .  A
N702        C706   1.339       .  A
N703        C704   1.352       .  A
C704        C705   1.389       .  A
C704        H707   1.082       .  S
C705        C706   1.376       .  A
C705       C2108   1.480       .  S
C706        H708   1.082       .  S
N709        N710   1.323       .  A
N709        C713   1.350       .  A
N709       Cu717   2.081       .  S
N710        C711   1.341       .  A
N710       Cu716   2.070       .  S
C711        C712   1.379       .  A
C711        H714   1.082       .  S
C712        C713   1.386       .  A
C712       C2078   1.477       .  S
C713        H715   1.082       .  S
Cu716       N719   2.068       .  S
Cu717       N727   2.081       .  S
Cu718       N720   2.061       .  S
Cu718       N726   2.063       .  S
N719        N720   1.320       .  A
N719        C723   1.345       .  A
N720        C721   1.344       .  A
C721        C722   1.381       .  A
C721        H724   1.082       .  S
C722        C723   1.384       .  A
C722        C768   1.465   1_554  S
C723        H725   1.083       .  S
N726        N727   1.323       .  A
N726        C730   1.340       .  A
N727        C728   1.349       .  A
C728        C729   1.385       .  A
C728        H731   1.082       .  S
C729        C730   1.377       .  A
C729       C2088   1.474       .  S
C730        H732   1.082       .  S
N733        N734   1.323       .  A
N733        C737   1.350       .  A
N733       Cu741   2.081       .  S
N734        C735   1.338       .  A
N734       Cu740   2.056       .  S
C735        C736   1.375       .  A
C735        H738   1.082       .  S
C736        C737   1.386       .  A
C736       C2058   1.470       .  S
C737        H739   1.082       .  S
Cu740       N743   2.055       .  S
Cu741       N751   2.081       .  S
Cu742       N744   2.055       .  S
Cu742       N750   2.057       .  S
N743        N744   1.319       .  A
N743        C747   1.343       .  A
N744        C745   1.342       .  A
C745        C746   1.380       .  A
C745        H748   1.082       .  S
C746        C747   1.380       .  A
C746        C769   1.457   1_554  S
C747        H749   1.082   1_554  S
N750        N751   1.324       .  A
N750        C754   1.339       .  A
N751        C752   1.348       .  A
C752        C753   1.384       .  A
C752        H755   1.082       .  S
C753        C754   1.375       .  A
C753       C2068   1.469       .  S
C754        H756   1.082       .  S
O757       Cu765   1.985       .  S
O757        C767   1.275       .  A
O758       Cu765   1.998       .  S
O758        C768   1.276       .  A
O759       Cu765   2.009       .  S
O759        C769   1.277       .  A
O760       Cu765   2.006       .  S
O760        C770   1.277       .  A
O761       Cu766   1.995       .  S
O761        C770   1.276       .  A
O762       Cu766   1.991       .  S
O762        C769   1.275       .  A
O763       Cu766   2.014       .  S
O763        C768   1.279       .  A
O764       Cu766   2.021       .  S
O764        C767   1.278       .  A
Cu765      Cu766   2.379       .  S
N771        N772   1.323       .  A
N771        C775   1.353       .  A
N771       Cu779   2.107       .  S
N772        C773   1.339       .  A
N772       Cu778   2.051       .  S
C773        C774   1.374       .  A
C773        H776   1.082       .  S
C774        C775   1.391       .  A
C774       C2038   1.478       .  S
C775        H777   1.082       .  S
Cu778       N781   2.054       .  S
Cu779       N789   2.107       .  S
Cu780       N782   2.061       .  S
Cu780       N788   2.062       .  S
N781        N782   1.319       .  A
N781        C785   1.341       .  A
N782        C783   1.345       .  A
C783        C784   1.384       .  A
C783        H786   1.082       .  S
C784        C785   1.380       .  A
C784        C877   1.462       .  S
C785        H787   1.083       .  S
N788        N789   1.325       .  A
N788        C792   1.339       .  A
N789        C790   1.354       .  A
C790        C791   1.390       .  A
C790        H793   1.082       .  S
C791        C792   1.374       .  A
C791       C2051   1.478       .  S
C792        H794   1.082       .  S
N795        N796   1.322       .  A
N795        C799   1.352       .  A
N795       Cu803   2.096       .  S
N796        C797   1.341       .  A
N796       Cu802   2.071       .  S
C797        C798   1.383       .  A
C797        H800   1.082       .  S
C798        C799   1.391       .  A
C798       C2028   1.489       .  S
C799        H801   1.081       .  S
Cu802       N805   2.074       .  S
Cu803       N813   2.096       .  S
Cu804       N806   2.061       .  S
Cu804       N812   2.059       .  S
N805        N806   1.322       .  A
N805        C809   1.346       .  A
N806        C807   1.342       .  A
C807        C808   1.380       .  A
C807        H810   1.083       .  S
C808        C809   1.384       .  A
C808        C880   1.465       .  S
C809        H811   1.082       .  S
N812        N813   1.321       .  A
N812        C816   1.341       .  A
N813        C814   1.350       .  A
C814        C815   1.391       .  A
C814        H817   1.082       .  S
C815        C816   1.382       .  A
C815       C2018   1.489       .  S
C816        H818   1.082       .  S
N819        N820   1.323       .  A
N819        C823   1.352       .  A
N819       Cu827   2.101       .  S
N820        C821   1.341       .  A
N820       Cu826   2.063       .  S
C821        C822   1.381       .  A
C821        H824   1.082       .  S
C822        C823   1.391       .  A
C822       C1998   1.488       .  S
C823        H825   1.082       .  S
Cu826       N829   2.066       .  S
Cu827       N837   2.102       .  S
Cu828       N830   2.062       .  S
Cu828       N836   2.062       .  S
N829        N830   1.322       .  A
N829        C833   1.344       .  A
N830        C831   1.343       .  A
C831        C832   1.379       .  A
C831        H834   1.082       .  S
C832        C833   1.380       .  A
C832        C879   1.457       .  S
C833        H835   1.082       .  S
N836        N837   1.322       .  A
N836        C840   1.343       .  A
N837        C838   1.352       .  A
C838        C839   1.393       .  A
C838        H841   1.082       .  S
C839        C840   1.379       .  A
C839       C2008   1.487       .  S
C840        H842   1.082       .  S
N843        N844   1.324       .  A
N843        C847   1.348       .  A
N843       Cu851   2.075       .  S
N844        C845   1.340       .  A
N844       Cu850   2.064       .  S
C845        C846   1.377       .  A
C845        H848   1.082       .  S
C846        C847   1.383       .  A
C846       C1988   1.471       .  S
C847        H849   1.082       .  S
Cu850       N853   2.064       .  S
Cu851       N861   2.074       .  S
Cu852       N854   2.055       .  S
Cu852       N860   2.056       .  S
N853        N854   1.320       .  A
N853        C857   1.345       .  A
N854        C855   1.341       .  A
C855        C856   1.380       .  A
C855        H858   1.082       .  S
C856        C857   1.383       .  A
C856        C878   1.462       .  S
C857        H859   1.082       .  S
N860        N861   1.322       .  A
N860        C864   1.339       .  A
N861        C862   1.347       .  A
C862        C863   1.384       .  A
C862        H865   1.082       .  S
C863        C864   1.377       .  A
C863       C1978   1.471       .  S
C864        H866   1.082       .  S
O867       Cu875   2.000       .  S
O867        C877   1.277       .  A
O868       Cu875   1.990       .  S
O868        C878   1.275   1_556  A
O869       Cu875   2.001       .  S
O869        C879   1.276   1_556  A
O870       Cu875   2.001       .  S
O870        C880   1.277       .  A
O871       Cu876   2.007       .  S
O871        C880   1.277       .  A
O872       Cu876   2.006       .  S
O872        C879   1.276   1_556  A
O873       Cu876   2.014       .  S
O873        C878   1.278   1_556  A
O874       Cu876   2.004       .  S
O874        C877   1.277       .  A
Cu875      Cu876   2.376       .  S
N881        N882   1.324       .  A
N881        C885   1.353       .  A
N881       Cu889   2.103       .  S
N882        C883   1.339       .  A
N882       Cu888   2.058       .  S
C883        C884   1.375       .  A
C883        H886   1.082       .  S
C884        C885   1.389       .  A
C884       C1958   1.477       .  S
C885        H887   1.082       .  S
Cu888       N891   2.057       .  S
Cu889       N899   2.104       .  S
Cu890       N892   2.059       .  S
Cu890       N898   2.060       .  S
N891        N892   1.319       .  A
N891        C895   1.342       .  A
N892        C893   1.345       .  A
C893        C894   1.382       .  A
C893        H896   1.082       .  S
C894        C895   1.381       .  A
C894        C987   1.461       .  S
C895        H897   1.083       .  S
N898        N899   1.324       .  A
N898        C902   1.339       .  A
N899        C900   1.354       .  A
C900        C901   1.389       .  A
C900        H903   1.082       .  S
C901        C902   1.375       .  A
C901       C1968   1.477       .  S
C902        H904   1.082       .  S
N905        N906   1.323       .  A
N905        C909   1.353       .  A
N905       Cu913   2.104       .  S
N906        C907   1.341       .  A
N906       Cu912   2.069       .  S
C907        C908   1.382       .  A
C907        H910   1.082       .  S
C908        C909   1.393       .  A
C908       C1938   1.492       .  S
C909        H911   1.082       .  S
Cu912       N915   2.069       .  S
Cu913       N923   2.103       .  S
Cu914       N916   2.049       .  S
Cu914       N922   2.048       .  S
N915        N916   1.321       .  A
N915        C919   1.345       .  A
N916        C917   1.341       .  A
C917        C918   1.376       .  A
C917        H920   1.082       .  S
C918        C919   1.381       .  A
C918        C989   1.454       .  S
C919        H921   1.083       .  S
N922        N923   1.322       .  A
N922        C926   1.339       .  A
N923        C924   1.352       .  A
C924        C925   1.391       .  A
C924        H927   1.082       .  S
C925        C926   1.375       .  A
C925       C1948   1.479       .  S
C926        H928   1.082       .  S
N929        N930   1.322       .  A
N929        C933   1.355       .  A
N929       Cu937   2.116       .  S
N930        C931   1.340       .  A
N930       Cu936   2.051       .  S
C931        C932   1.376       .  A
C931        H934   1.082       .  S
C932        C933   1.395       .  A
C932       C1928   1.485       .  S
C933        H935   1.082       .  S
Cu936       N939   2.052       .  S
Cu937       N947   2.117       .  S
Cu938       N940   2.068       .  S
Cu938       N946   2.067       .  S
N939        N940   1.321       .  A
N939        C943   1.341       .  A
N940        C941   1.345       .  A
C941        C942   1.382       .  A
C941        H944   1.082       .  S
C942        C943   1.377       .  A
C942        C990   1.455       .  S
C943        H945   1.083       .  S
N946        N947   1.324       .  A
N946        C950   1.341       .  A
N947        C948   1.354       .  A
C948        C949   1.395       .  A
C948        H951   1.082       .  S
C949        C950   1.381       .  A
C949       C1918   1.494       .  S
C950        H952   1.082       .  S
N953        N954   1.322       .  A
N953        C957   1.350       .  A
N953       Cu961   2.092       .  S
N954        C955   1.340       .  A
N954       Cu960   2.060       .  S
C955        C956   1.378       .  A
C955        H958   1.082       .  S
C956        C957   1.388       .  A
C956       C1898   1.477       .  S
C957        H959   1.082       .  S
Cu960       N963   2.060       .  S
Cu961       N971   2.092       .  S
Cu962       N964   2.059       .  S
Cu962       N970   2.060       .  S
N963        N964   1.320       .  A
N963        C967   1.342       .  A
N964        C965   1.344       .  A
C965        C966   1.382       .  A
C965        H968   1.082       .  S
C966        C967   1.381       .  A
C966        C988   1.462       .  S
C967        H969   1.082       .  S
N970        N971   1.324       .  A
N970        C974   1.340       .  A
N971        C972   1.350       .  A
C972        C973   1.387       .  A
C972        H975   1.082       .  S
C973        C974   1.377       .  A
C973       C1908   1.476       .  S
C974        H976   1.082       .  S
O977       Cu985   2.010       .  S
O977        C987   1.277       .  A
O978       Cu985   2.008   1_455  S
O978        C988   1.277       .  A
O979       Cu985   2.005       .  S
O979        C989   1.276       .  A
O980       Cu985   2.009   1_455  S
O980        C990   1.276       .  A
O981       Cu986   1.993   1_455  S
O981        C990   1.275       .  A
O982       Cu986   1.997       .  S
O982        C989   1.275       .  A
O983       Cu986   1.996   1_455  S
O983        C988   1.276       .  A
O984       Cu986   1.997       .  S
O984        C987   1.276       .  A
Cu985      Cu986   2.375       .  S
N991        N992   1.325       .  A
N991        C995   1.353       .  A
N991       Cu999   2.112       .  S
N992        C993   1.341       .  A
N992       Cu998   2.061       .  S
C993        C994   1.376       .  A
C993        H996   1.082       .  S
C994        C995   1.391       .  A
C994       C1878   1.483       .  S
C995        H997   1.082       .  S
Cu998      N1001   2.059       .  S
Cu999      N1009   2.110       .  S
Cu1000     N1002   2.046       .  S
Cu1000     N1008   2.045       .  S
N1001      N1002   1.319       .  A
N1001      C1005   1.344       .  A
N1002      C1003   1.340       .  A
C1003      C1004   1.378       .  A
C1003      H1006   1.083       .  S
C1004      C1005   1.382       .  A
C1004      C1097   1.457       .  S
C1005      H1007   1.082       .  S
N1008      N1009   1.322       .  A
N1008      C1012   1.338       .  A
N1009      C1010   1.354       .  A
C1010      C1011   1.395       .  A
C1010      H1013   1.081       .  S
C1011      C1012   1.375       .  A
C1011      C1888   1.485       .  S
C1012      H1014   1.082       .  S
N1015      N1016   1.323       .  A
N1015      C1019   1.356       .  A
N1015     Cu1023   2.120       .  S
N1016      C1017   1.341       .  A
N1016     Cu1022   2.063       .  S
C1017      C1018   1.378       .  A
C1017      H1020   1.082       .  S
C1018      C1019   1.395       .  A
C1018      C1858   1.489       .  S
C1019      H1021   1.082       .  S
Cu1022     N1025   2.064       .  S
Cu1023     N1033   2.121       .  S
Cu1024     N1026   2.061       .  S
Cu1024     N1032   2.059       .  S
N1025      N1026   1.319       .  A
N1025      C1029   1.343       .  A
N1026      C1027   1.345       .  A
C1027      C1028   1.384       .  A
C1027      H1030   1.082       .  S
C1028      C1029   1.383       .  A
C1028      C1100   1.467       .  S
C1029      H1031   1.082       .  S
N1032      N1033   1.324       .  A
N1032      C1036   1.340       .  A
N1033      C1034   1.356       .  A
C1034      C1035   1.395       .  A
C1034      H1037   1.082       .  S
C1035      C1036   1.376       .  A
C1035      C1868   1.489       .  S
C1036      H1038   1.083       .  S
N1039      N1040   1.325       .  A
N1039      C1043   1.352       .  A
N1039     Cu1047   2.107       .  S
N1040      C1041   1.342       .  A
N1040     Cu1046   2.067       .  S
C1041      C1042   1.376       .  A
C1041      H1044   1.082       .  S
C1042      C1043   1.389       .  A
C1042      C1838   1.481       .  S
C1043      H1045   1.082       .  S
Cu1046     N1049   2.066       .  S
Cu1047     N1057   2.106       .  S
Cu1048     N1050   2.061       .  S
Cu1048     N1056   2.061       .  S
N1049      N1050   1.319       .  A
N1049      C1053   1.344       .  A
N1050      C1051   1.345       .  A
C1051      C1052   1.383       .  A
C1051      H1054   1.082       .  S
C1052      C1053   1.383       .  A
C1052      C1099   1.466       .  S
C1053      H1055   1.083       .  S
N1056      N1057   1.324       .  A
N1056      C1060   1.339       .  A
N1057      C1058   1.355       .  A
C1058      C1059   1.391       .  A
C1058      H1061   1.081       .  S
C1059      C1060   1.374       .  A
C1059      C1851   1.480       .  S
C1060      H1062   1.082       .  S
N1063      N1064   1.325       .  A
N1063      C1067   1.353       .  A
N1063     Cu1071   2.107       .  S
N1064      C1065   1.339       .  A
N1064     Cu1070   2.054       .  S
C1065      C1066   1.373       .  A
C1065      H1068   1.082       .  S
C1066      C1067   1.389       .  A
C1066      C1828   1.475       .  S
C1067      H1069   1.082       .  S
Cu1070     N1073   2.053       .  S
Cu1071     N1081   2.106       .  S
Cu1072     N1074   2.038       .  S
Cu1072     N1080   2.039       .  S
N1073      N1074   1.318       .  A
N1073      C1077   1.341       .  A
N1074      C1075   1.340       .  A
C1075      C1076   1.377       .  A
C1075      H1078   1.082       .  S
C1076      C1077   1.381       .  A
C1076      C1098   1.453       .  S
C1077      H1079   1.082       .  S
N1080      N1081   1.322       .  A
N1080      C1084   1.336       .  A
N1081      C1082   1.354       .  A
C1082      C1083   1.392       .  A
C1082      H1085   1.081       .  S
C1083      C1084   1.373       .  A
C1083      C1818   1.479       .  S
C1084      H1086   1.082       .  S
O1087     Cu1095   1.991       .  S
O1087      C1097   1.276       .  A
O1088     Cu1095   1.985   1_554  S
O1088      C1098   1.274       .  A
O1089     Cu1095   2.014   1_554  S
O1089      C1099   1.278       .  A
O1090     Cu1095   2.015       .  S
O1090      C1100   1.278       .  A
O1091     Cu1096   2.002       .  S
O1091      C1100   1.277       .  A
O1092     Cu1096   2.004   1_554  S
O1092      C1099   1.276       .  A
O1093     Cu1096   1.999   1_554  S
O1093      C1098   1.277       .  A
O1094     Cu1096   2.000       .  S
O1094      C1097   1.276       .  A
Cu1095    Cu1096   2.379       .  S
N1101      N1102   1.323       .  A
N1101      C1105   1.349       .  A
N1101     Cu1109   2.084       .  S
N1102      C1103   1.342       .  A
N1102     Cu1108   2.072       .  S
C1103      C1104   1.380       .  A
C1103      H1106   1.082       .  S
C1104      C1105   1.386       .  A
C1104      C1798   1.479       .  S
C1105      H1107   1.082       .  S
Cu1108     N1111   2.071       .  S
Cu1109     N1119   2.084       .  S
Cu1110     N1112   2.059       .  S
Cu1110     N1118   2.059       .  S
N1111      N1112   1.320       .  A
N1111      C1115   1.345       .  A
N1112      C1113   1.344       .  A
C1113      C1114   1.381       .  A
C1113      H1116   1.082       .  S
C1114      C1115   1.383       .  A
C1114      C1207   1.463       .  S
C1115      H1117   1.082       .  S
N1118      N1119   1.324       .  A
N1118      C1122   1.340       .  A
N1119      C1120   1.349       .  A
C1120      C1121   1.385       .  A
C1120      H1123   1.082       .  S
C1121      C1122   1.377       .  A
C1121      C1808   1.473       .  S
C1122      H1124   1.082       .  S
N1125      N1126   1.322       .  A
N1125      C1129   1.351       .  A
N1125     Cu1133   2.097       .  S
N1126      C1127   1.341       .  A
N1126     Cu1132   2.059       .  S
C1127      C1128   1.379       .  A
C1127      H1130   1.082       .  S
C1128      C1129   1.391       .  A
C1128      C1778   1.484       .  S
C1129      H1131   1.082       .  S
Cu1132     N1135   2.060       .  S
Cu1133     N1143   2.097       .  S
Cu1134     N1136   2.067       .  S
Cu1134     N1142   2.067       .  S
N1135      N1136   1.322       .  A
N1135      C1139   1.342       .  A
N1136      C1137   1.345       .  A
C1137      C1138   1.380       .  A
C1137      H1140   1.083       .  S
C1138      C1139   1.379       .  A
C1138      C1209   1.456       .  S
C1139      H1141   1.082       .  S
N1142      N1143   1.322       .  A
N1142      C1146   1.341       .  A
N1143      C1144   1.352       .  A
C1144      C1145   1.391       .  A
C1144      H1147   1.082       .  S
C1145      C1146   1.382       .  A
C1145      C1791   1.490       .  S
C1146      H1148   1.082       .  S
N1149      N1150   1.326       .  A
N1149      C1153   1.355       .  A
N1149     Cu1157   2.116       .  S
N1150      C1151   1.340       .  A
N1150     Cu1156   2.069       .  S
C1151      C1152   1.376       .  A
C1151      H1154   1.082       .  S
C1152      C1153   1.391       .  A
C1152      C1758   1.484       .  S
C1153      H1155   1.082       .  S
Cu1156     N1159   2.067       .  S
Cu1157     N1167   2.115       .  S
Cu1158     N1160   2.041       .  S
Cu1158     N1166   2.043       .  S
N1159      N1160   1.319       .  A
N1159      C1163   1.346       .  A
N1160      C1161   1.339       .  A
C1161      C1162   1.376       .  A
C1161      H1164   1.082       .  S
C1162      C1163   1.384       .  A
C1162      C1210   1.456       .  S
C1163      H1165   1.083       .  S
N1166      N1167   1.322       .  A
N1166      C1170   1.338       .  A
N1167      C1168   1.354       .  A
C1168      C1169   1.394       .  A
C1168      H1171   1.082       .  S
C1169      C1170   1.375       .  A
C1169      C1771   1.483       .  S
C1170      H1172   1.082       .  S
N1173      N1174   1.323       .  A
N1173      C1177   1.353       .  A
N1173     Cu1181   2.110       .  S
N1174      C1175   1.340       .  A
N1174     Cu1180   2.060       .  S
C1175      C1176   1.377       .  A
C1175      H1178   1.082       .  S
C1176      C1177   1.393       .  A
C1176      C1741   1.483       .  S
C1177      H1179   1.082       .  S
Cu1180     N1183   2.064       .  S
Cu1181     N1191   2.108       .  S
Cu1182     N1184   2.067       .  S
Cu1182     N1190   2.062       .  S
N1183      N1184   1.321       .  A
N1183      C1187   1.347       .  A
N1184      C1185   1.341       .  A
C1185      C1186   1.381       .  A
C1185      H1188   1.082       .  S
C1186      C1187   1.383       .  A
C1186      C1208   1.466       .  S
C1187      H1189   1.082       .  S
N1190      N1191   1.320       .  A
N1190      C1194   1.342       .  A
N1191      C1192   1.353       .  A
C1192      C1193   1.397       .  A
C1192      H1195   1.081       .  S
C1193      C1194   1.384       .  A
C1193      C1751   1.500       .  S
C1194      H1196   1.081       .  S
O1197     Cu1205   2.004   1_655  S
O1197      C1207   1.277       .  A
O1198     Cu1205   2.024       .  S
O1198      C1208   1.279       .  A
O1199     Cu1205   2.012   1_655  S
O1199      C1209   1.277       .  A
O1200     Cu1205   2.004       .  S
O1200      C1210   1.276       .  A
O1201     Cu1206   1.994       .  S
O1201      C1210   1.276       .  A
O1202     Cu1206   1.991   1_655  S
O1202      C1209   1.275       .  A
O1203     Cu1206   1.989       .  S
O1203      C1208   1.275       .  A
O1204     Cu1206   2.007   1_655  S
O1204      C1207   1.277       .  A
Cu1205    Cu1206   2.379       .  S
N1211      N1212   1.322       .  A
N1211      C1215   1.351       .  A
N1211     Cu1219   2.090       .  S
N1212      C1213   1.339       .  A
N1212     Cu1218   2.058       .  S
C1213      C1214   1.379       .  A
C1213      H1216   1.082       .  S
C1214      C1215   1.389       .  A
C1214      C1728   1.482       .  S
C1215      H1217   1.082       .  S
Cu1218     N1221   2.062       .  S
Cu1219     N1229   2.090       .  S
Cu1220     N1222   2.059       .  S
Cu1220     N1228   2.058       .  S
N1221      N1222   1.320       .  A
N1221      C1225   1.341       .  A
N1222      C1223   1.345       .  A
C1223      C1224   1.382       .  A
C1223      H1226   1.082       .  S
C1224      C1225   1.382       .  A
C1224      C1319   1.463       .  S
C1225      H1227   1.083       .  S
N1228      N1229   1.323       .  A
N1228      C1232   1.338       .  A
N1229      C1230   1.351       .  A
C1230      C1231   1.388       .  A
C1230      H1233   1.082       .  S
C1231      C1232   1.377       .  A
C1231      C1718   1.477       .  S
C1232      H1234   1.083       .  S
N1235      N1236   1.322       .  A
N1235      C1239   1.348       .  A
N1235     Cu1243   2.077       .  S
N1236      C1237   1.340       .  A
N1236     Cu1242   2.066       .  S
C1237      C1238   1.379       .  A
C1237      H1240   1.082       .  S
C1238      C1239   1.387       .  A
C1238      C1708   1.477       .  S
C1239      H1241   1.082       .  S
Cu1242     N1245   2.067       .  S
Cu1243     N1253   2.078       .  S
Cu1244     N1246   2.066       .  S
Cu1244     N1252   2.065       .  S
N1245      N1246   1.321       .  A
N1245      C1249   1.344       .  A
N1246      C1247   1.345       .  A
C1247      C1248   1.380       .  A
C1247      H1250   1.082       .  S
C1248      C1249   1.382       .  A
C1248      C1318   1.461       .  S
C1249      H1251   1.082       .  S
N1252      N1253   1.322       .  A
N1252      C1256   1.341       .  A
N1253      C1254   1.347       .  A
C1254      C1255   1.386       .  A
C1254      H1257   1.082       .  S
C1255      C1256   1.381       .  A
C1255      C1698   1.481       .  S
C1256      H1258   1.082       .  S
N1259      N1260   1.321       .  A
N1259      C1263   1.347       .  A
N1259     Cu1267   2.078       .  S
N1260      C1261   1.343       .  A
N1260     Cu1266   2.067       .  S
C1261      C1262   1.384       .  A
C1261      H1264   1.081       .  S
C1262      C1263   1.388       .  A
C1262      C1688   1.487       .  S
C1263      H1265   1.082       .  S
Cu1266     N1269   2.067       .  S
Cu1267     N1277   2.077       .  S
Cu1268     N1270   2.061       .  S
Cu1268     N1276   2.060       .  S
N1269      N1270   1.322       .  A
N1269      C1273   1.344       .  A
N1270      C1271   1.343       .  A
C1271      C1272   1.379       .  A
C1271      H1274   1.082       .  S
C1272      C1273   1.380       .  A
C1272      C1317   1.458       .  S
C1273      H1275   1.083       .  S
N1276      N1277   1.322       .  A
N1276      C1280   1.341       .  A
N1277      C1278   1.347       .  A
C1278      C1279   1.386       .  A
C1278      H1281   1.082       .  S
C1279      C1280   1.379       .  A
C1279      C1681   1.475       .  S
C1280      H1282   1.082       .  S
N1283      N1284   1.324       .  A
N1283      C1287   1.350       .  A
N1283     Cu1291   2.097       .  S
N1284      C1285   1.343       .  A
N1284     Cu1290   2.074       .  S
C1285      C1286   1.380       .  A
C1285      H1288   1.082       .  S
C1286      C1287   1.386       .  A
C1286      C1668   1.479       .  S
C1287      H1289   1.082       .  S
Cu1290     N1293   2.073       .  S
Cu1291     N1301   2.097       .  S
Cu1292     N1294   2.070       .  S
Cu1292     N1300   2.071       .  S
N1293      N1294   1.321       .  A
N1293      C1297   1.345       .  A
N1294      C1295   1.346       .  A
C1295      C1296   1.382       .  A
C1295      H1298   1.082       .  S
C1296      C1297   1.384       .  A
C1296      C1320   1.469       .  S
C1297      H1299   1.082       .  S
N1300      N1301   1.323       .  A
N1300      C1304   1.342       .  A
N1301      C1302   1.351       .  A
C1302      C1303   1.390       .  A
C1302      H1305   1.082       .  S
C1303      C1304   1.380       .  A
C1303      C1661   1.482       .  S
C1304      H1306   1.082       .  S
O1307     Cu1315   2.006   1_455  S
O1307      C1317   1.277       .  A
O1308     Cu1315   2.011       .  S
O1308      C1318   1.277       .  A
O1309     Cu1315   1.991       .  S
O1309      C1319   1.275       .  A
O1310     Cu1315   1.999   1_455  S
O1310      C1320   1.276       .  A
O1311     Cu1316   2.022   1_455  S
O1311      C1320   1.280       .  A
O1312     Cu1316   2.015       .  S
O1312      C1319   1.278       .  A
O1313     Cu1316   2.003       .  S
O1313      C1318   1.276       .  A
O1314     Cu1316   2.004   1_455  S
O1314      C1317   1.276       .  A
Cu1315    Cu1316   2.372       .  S
O1321     Cu1329   1.998       .  S
O1321      C1331   1.277       .  A
O1322     Cu1329   2.003   1_655  S
O1322      C1332   1.277       .  A
O1323     Cu1329   2.005   1_655  S
O1323      C1333   1.277       .  A
O1324     Cu1329   2.017       .  S
O1324      C1334   1.278       .  A
O1325     Cu1330   2.023       .  S
O1325      C1334   1.279       .  A
O1326     Cu1330   2.016   1_655  S
O1326      C1333   1.277       .  A
O1327     Cu1330   2.016   1_655  S
O1327      C1332   1.277       .  A
O1328     Cu1330   2.018       .  S
O1328      C1331   1.278       .  A
Cu1329    Cu1330   2.364       .  S
C1331      C1678   1.493       .  S
C1332      C1801   1.499       .  S
C1333      C1721   1.471       .  S
C1334      C1761   1.485       .  S
O1335     Cu1343   2.032       .  S
O1335      C1345   1.280       .  A
O1336     Cu1343   2.031       .  S
O1336      C1346   1.279       .  A
O1337     Cu1343   2.007       .  S
O1337      C1347   1.277       .  A
O1338     Cu1343   2.010       .  S
O1338      C1348   1.277       .  A
O1339     Cu1344   2.004       .  S
O1339      C1348   1.278       .  A
O1340     Cu1344   1.996       .  S
O1340      C1347   1.276       .  A
O1341     Cu1344   1.998       .  S
O1341      C1346   1.276       .  A
O1342     Cu1344   2.002       .  S
O1342      C1345   1.276       .  A
Cu1343    Cu1344   2.366       .  S
C1345      C2551   1.506       .  S
C1346      C1731   1.475       .  S
C1347      C2571   1.479       .  S
C1348      C1711   1.489       .  S
O1349     Cu1357   2.034       .  S
O1349      C1359   1.280       .  A
O1350     Cu1357   2.030       .  S
O1350      C1360   1.281       .  A
O1351     Cu1357   2.018       .  S
O1351      C1361   1.277       .  A
O1352     Cu1357   2.005       .  S
O1352      C1362   1.276       .  A
O1353     Cu1358   2.013       .  S
O1353      C1362   1.279       .  A
O1354     Cu1358   2.017       .  S
O1354      C1361   1.279       .  A
O1355     Cu1358   1.995       .  S
O1355      C1360   1.276       .  A
O1356     Cu1358   1.993       .  S
O1356      C1359   1.276       .  A
Cu1357    Cu1358   2.370       .  S
C1359      C2411   1.493       .  S
C1360      C1671   1.487       .  S
C1361      C2391   1.478       .  S
C1362      C1691   1.480       .  S
O1363     Cu1371   1.998       .  S
O1363      C1373   1.277       .  A
O1364     Cu1371   2.007       .  S
O1364      C1374   1.278       .  A
O1365     Cu1371   1.996       .  S
O1365      C1375   1.275       .  A
O1366     Cu1371   1.999       .  S
O1366      C1376   1.276       .  A
O1367     Cu1372   2.037       .  S
O1367      C1376   1.281       .  A
O1368     Cu1372   2.040       .  S
O1368      C1375   1.281       .  A
O1369     Cu1372   2.009       .  S
O1369      C1374   1.276       .  A
O1370     Cu1372   2.022       .  S
O1370      C1373   1.278       .  A
Cu1371    Cu1372   2.367       .  S
C1373      C1831   1.482       .  S
C1374      C1811   1.474       .  S
C1375      C1848   1.504       .  S
C1376      C1788   1.490       .  S
O1377     Cu1385   2.015       .  S
O1377      C1387   1.278       .  A
O1378     Cu1385   2.015       .  S
O1378      C1388   1.278       .  A
O1379     Cu1385   2.043       .  S
O1379      C1389   1.281       .  A
O1380     Cu1385   2.037       .  S
O1380      C1390   1.281       .  A
O1381     Cu1386   2.007       .  S
O1381      C1390   1.277       .  A
O1382     Cu1386   2.010       .  S
O1382      C1389   1.277       .  A
O1383     Cu1386   2.012       .  S
O1383      C1388   1.278       .  A
O1384     Cu1386   1.997       .  S
O1384      C1387   1.277       .  A
Cu1385    Cu1386   2.365       .  S
C1387      C1991   1.478       .  S
C1388      C1768   1.487       .  S
C1389      C2011   1.515       .  S
C1390      C1748   1.487       .  S
O1391     Cu1399   2.032       .  S
O1391      C1401   1.280       .  A
O1392     Cu1399   2.039   1_554  S
O1392      C1402   1.282       .  A
O1393     Cu1399   2.019   1_554  S
O1393      C1403   1.277       .  A
O1394     Cu1399   2.027       .  S
O1394      C1404   1.279       .  A
O1395     Cu1400   2.010       .  S
O1395      C1404   1.278       .  A
O1396     Cu1400   2.015   1_554  S
O1396      C1403   1.280       .  A
O1397     Cu1400   1.995   1_554  S
O1397      C1402   1.274       .  A
O1398     Cu1400   1.994       .  S
O1398      C1401   1.275       .  A
Cu1399    Cu1400   2.363       .  S
C1401      C2101   1.473       .  S
C1402      C1841   1.505       .  S
C1403      C2061   1.489       .  S
C1404      C1881   1.504       .  S
O1405     Cu1413   2.035       .  S
O1405      C1415   1.280       .  A
O1406     Cu1413   2.030       .  S
O1406      C1416   1.279       .  A
O1407     Cu1413   2.011       .  S
O1407      C1417   1.277       .  A
O1408     Cu1413   2.014       .  S
O1408      C1418   1.277       .  A
O1409     Cu1414   2.017       .  S
O1409      C1418   1.279       .  A
O1410     Cu1414   2.019       .  S
O1410      C1417   1.278       .  A
O1411     Cu1414   2.018       .  S
O1411      C1416   1.278       .  A
O1412     Cu1414   2.020       .  S
O1412      C1415   1.278       .  A
Cu1413    Cu1414   2.359       .  S
C1415      C1871   1.488       .  S
C1416      C1971   1.483       .  S
C1417      C1891   1.504       .  S
C1418      C1951   1.499       .  S
O1419     Cu1427   2.011       .  S
O1419      C1429   1.277       .  A
O1420     Cu1427   2.018   1_455  S
O1420      C1430   1.278       .  A
O1421     Cu1427   2.030   1_455  S
O1421      C1431   1.280       .  A
O1422     Cu1427   2.019       .  S
O1422      C1432   1.279       .  A
O1423     Cu1428   1.993       .  S
O1423      C1432   1.275       .  A
O1424     Cu1428   1.997   1_455  S
O1424      C1431   1.276       .  A
O1425     Cu1428   2.022   1_455  S
O1425      C1430   1.280       .  A
O1426     Cu1428   2.018       .  S
O1426      C1429   1.280       .  A
Cu1427    Cu1428   2.369       .  S
C1429      C1961   1.486       .  S
C1430      C1658   1.488       .  S
C1431      C1921   1.490       .  S
C1432      C1701   1.478       .  S
O1433     Cu1441   2.017       .  S
O1433      C1443   1.278       .  A
O1434     Cu1441   2.016       .  S
O1434      C1444   1.278       .  A
O1435     Cu1441   2.041       .  S
O1435      C1445   1.281       .  A
O1436     Cu1441   2.041       .  S
O1436      C1446   1.281       .  A
O1437     Cu1442   1.998       .  S
O1437      C1446   1.274       .  A
O1438     Cu1442   1.998       .  S
O1438      C1445   1.276       .  A
O1439     Cu1442   2.004       .  S
O1439      C1444   1.277       .  A
O1440     Cu1442   2.017       .  S
O1440      C1443   1.279       .  A
Cu1441    Cu1442   2.364       .  S
C1443      C2048   1.492       .  S
C1444      C1911   1.482       .  S
C1445      C2031   1.480       .  S
C1446      C1931   1.512       .  S
O1447     Cu1455   2.032       .  S
O1447      C1457   1.280       .  A
O1448     Cu1455   2.017       .  S
O1448      C1458   1.278       .  A
O1449     Cu1455   2.022       .  S
O1449      C1459   1.278       .  A
O1450     Cu1455   2.021       .  S
O1450      C1460   1.279       .  A
O1451     Cu1456   2.007       .  S
O1451      C1460   1.277       .  A
O1452     Cu1456   2.009       .  S
O1452      C1459   1.276       .  A
O1453     Cu1456   2.016       .  S
O1453      C1458   1.279       .  A
O1454     Cu1456   2.006       .  S
O1454      C1457   1.277       .  A
Cu1455    Cu1456   2.364       .  S
C1457      C2081   1.484   1_556  S
C1458      C2041   1.482       .  S
C1459      C2121   1.509       .  S
C1460      C2001   1.490   1_556  S
O1461     Cu1469   2.002       .  S
O1461      C1471   1.276       .  A
O1462     Cu1469   2.010       .  S
O1462      C1472   1.277       .  A
O1463     Cu1469   2.008       .  S
O1463      C1473   1.278       .  A
O1464     Cu1469   2.009       .  S
O1464      C1474   1.279       .  A
O1465     Cu1470   2.023       .  S
O1465      C1474   1.278       .  A
O1466     Cu1470   2.023       .  S
O1466      C1473   1.279       .  A
O1467     Cu1470   2.030       .  S
O1467      C1472   1.279       .  A
O1468     Cu1470   2.026       .  S
O1468      C1471   1.279       .  A
Cu1469    Cu1470   2.368       .  S
C1471      C2151   1.475       .  S
C1472      C2131   1.479       .  S
C1473      C2168   1.496       .  S
C1474      C2111   1.495       .  S
O1475     Cu1483   2.009       .  S
O1475      C1485   1.276       .  A
O1476     Cu1483   2.023       .  S
O1476      C1486   1.279       .  A
O1477     Cu1483   2.014       .  S
O1477      C1487   1.277       .  A
O1478     Cu1483   2.014       .  S
O1478      C1488   1.278       .  A
O1479     Cu1484   1.994       .  S
O1479      C1488   1.276       .  A
O1480     Cu1484   2.003       .  S
O1480      C1487   1.278       .  A
O1481     Cu1484   2.000       .  S
O1481      C1486   1.275       .  A
O1482     Cu1484   1.999       .  S
O1482      C1485   1.276       .  A
Cu1483    Cu1484   2.367       .  S
C1485      C2308   1.467       .  S
C1486      C2091   1.498       .  S
C1487      C2328   1.483       .  S
C1488      C2071   1.491       .  S
O1489     Cu1497   2.006       .  S
O1489      C1499   1.278       .  A
O1490     Cu1497   2.001       .  S
O1490      C1500   1.278       .  A
O1491     Cu1497   1.991       .  S
O1491      C1501   1.275       .  A
O1492     Cu1497   1.996       .  S
O1492      C1502   1.275       .  A
O1493     Cu1498   2.032       .  S
O1493      C1502   1.280       .  A
O1494     Cu1498   2.031       .  S
O1494      C1501   1.281       .  A
O1495     Cu1498   2.028       .  S
O1495      C1500   1.279       .  A
O1496     Cu1498   2.018       .  S
O1496      C1499   1.278       .  A
Cu1497    Cu1498   2.371       .  S
C1499      C2201   1.487       .  S
C1500      C2381   1.484   1_565  S
C1501      C2158   1.481   1_565  S
C1502      C2421   1.478       .  S
O1503     Cu1511   2.030       .  S
O1503      C1513   1.280       .  A
O1504     Cu1511   2.024       .  S
O1504      C1514   1.279       .  A
O1505     Cu1511   2.020       .  S
O1505      C1515   1.278       .  A
O1506     Cu1511   2.016       .  S
O1506      C1516   1.278       .  A
O1507     Cu1512   2.006       .  S
O1507      C1516   1.277       .  A
O1508     Cu1512   2.005       .  S
O1508      C1515   1.276       .  A
O1509     Cu1512   2.003       .  S
O1509      C1514   1.278       .  A
O1510     Cu1512   1.995       .  S
O1510      C1513   1.276       .  A
Cu1511    Cu1512   2.366       .  S
C1513      C2291   1.487       .  S
C1514      C2191   1.484       .  S
C1515      C2271   1.502       .  S
C1516      C2211   1.477       .  S
O1517     Cu1525   2.034       .  S
O1517      C1527   1.280       .  A
O1518     Cu1525   2.027   1_554  S
O1518      C1528   1.280       .  A
O1519     Cu1525   2.020       .  S
O1519      C1529   1.278   1_556  A
O1520     Cu1525   2.020       .  S
O1520      C1530   1.278       .  A
O1521     Cu1526   2.003       .  S
O1521      C1530   1.276       .  A
O1522     Cu1526   2.010       .  S
O1522      C1529   1.278   1_556  A
O1523     Cu1526   1.972   1_554  S
O1523      C1528   1.272       .  A
O1524     Cu1526   1.981       .  S
O1524      C1527   1.275       .  A
Cu1525    Cu1526   2.367       .  S
C1527      C2281   1.487       .  S
C1528      C1981   1.492       .  S
C1529      C2241   1.477       .  S
C1530      C2021   1.474       .  S
O1531     Cu1539   1.998       .  S
O1531      C1541   1.276       .  A
O1532     Cu1539   2.001       .  S
O1532      C1542   1.278       .  A
O1533     Cu1539   2.006       .  S
O1533      C1543   1.277       .  A
O1534     Cu1539   2.008       .  S
O1534      C1544   1.277       .  A
O1535     Cu1540   2.009       .  S
O1535      C1544   1.278       .  A
O1536     Cu1540   2.012       .  S
O1536      C1543   1.277       .  A
O1537     Cu1540   2.014       .  S
O1537      C1542   1.277       .  A
O1538     Cu1540   2.020       .  S
O1538      C1541   1.279       .  A
Cu1539    Cu1540   2.369       .  S
C1541      C2251   1.485       .  S
C1542      C2348   1.486       .  S
C1543      C2231   1.474       .  S
C1544      C2371   1.485       .  S
O1545     Cu1553   2.022       .  S
O1545      C1555   1.279       .  A
O1546     Cu1553   2.008   1_545  S
O1546      C1556   1.277       .  A
O1547     Cu1553   1.997   1_545  S
O1547      C1557   1.277       .  A
O1548     Cu1553   1.993       .  S
O1548      C1558   1.275       .  A
O1549     Cu1554   2.025       .  S
O1549      C1558   1.280       .  A
O1550     Cu1554   2.027   1_545  S
O1550      C1557   1.279       .  A
O1551     Cu1554   2.018   1_545  S
O1551      C1556   1.277       .  A
O1552     Cu1554   2.026       .  S
O1552      C1555   1.279       .  A
Cu1553    Cu1554   2.365       .  S
C1555      C2441   1.486       .  S
C1556      C2318   1.474       .  S
C1557      C2401   1.494       .  S
C1558      C2361   1.495       .  S
O1559     Cu1567   2.024       .  S
O1559      C1569   1.278       .  A
O1560     Cu1567   2.023       .  S
O1560      C1570   1.278       .  A
O1561     Cu1567   2.041       .  S
O1561      C1571   1.281       .  A
O1562     Cu1567   2.032       .  S
O1562      C1572   1.280       .  A
O1563     Cu1568   1.991       .  S
O1563      C1572   1.276       .  A
O1564     Cu1568   1.996       .  S
O1564      C1571   1.276       .  A
O1565     Cu1568   2.014       .  S
O1565      C1570   1.278       .  A
O1566     Cu1568   2.012       .  S
O1566      C1569   1.277       .  A
Cu1567    Cu1568   2.366       .  S
C1569      C2428   1.478       .  S
C1570      C2491   1.478       .  S
C1571      C2451   1.502       .  S
C1572      C2468   1.494       .  S
O1573     Cu1581   2.005       .  S
O1573      C1583   1.277       .  A
O1574     Cu1581   2.020   1_655  S
O1574      C1584   1.279       .  A
O1575     Cu1581   2.022   1_655  S
O1575      C1585   1.279       .  A
O1576     Cu1581   2.009       .  S
O1576      C1586   1.278       .  A
O1577     Cu1582   2.007       .  S
O1577      C1586   1.277       .  A
O1578     Cu1582   2.011   1_655  S
O1578      C1585   1.276       .  A
O1579     Cu1582   2.014   1_655  S
O1579      C1584   1.278       .  A
O1580     Cu1582   2.033       .  S
O1580      C1583   1.280       .  A
Cu1581    Cu1582   2.365       .  S
C1583      C1738   1.484       .  S
C1584      C2521   1.488       .  S
C1585      C1781   1.504       .  S
C1586      C2481   1.488       .  S
O1587     Cu1595   1.992       .  S
O1587      C1597   1.275       .  A
O1588     Cu1595   1.998       .  S
O1588      C1598   1.275       .  A
O1589     Cu1595   2.001       .  S
O1589      C1599   1.278       .  A
O1590     Cu1595   1.999       .  S
O1590      C1600   1.278       .  A
O1591     Cu1596   2.015       .  S
O1591      C1600   1.277       .  A
O1592     Cu1596   2.019       .  S
O1592      C1599   1.278       .  A
O1593     Cu1596   2.047       .  S
O1593      C1598   1.282       .  A
O1594     Cu1596   2.037       .  S
O1594      C1597   1.281       .  A
Cu1595    Cu1596   2.371       .  S
C1597      C2531   1.477       .  S
C1598      C2591   1.482       .  S
C1599      C2511   1.485       .  S
C1600      C2611   1.488       .  S
O1601     Cu1609   2.009   1_545  S
O1601      C1611   1.277       .  A
O1602     Cu1609   2.007       .  S
O1602      C1612   1.277       .  A
O1603     Cu1609   2.000       .  S
O1603      C1613   1.276       .  A
O1604     Cu1609   2.006   1_545  S
O1604      C1614   1.277       .  A
O1605     Cu1610   2.024   1_545  S
O1605      C1614   1.278       .  A
O1606     Cu1610   2.021       .  S
O1606      C1613   1.278       .  A
O1607     Cu1610   2.030       .  S
O1607      C1612   1.280       .  A
O1608     Cu1610   2.018   1_545  S
O1608      C1611   1.277       .  A
Cu1609    Cu1610   2.360       .  S
C1611      C2558   1.504       .  S
C1612      C2341   1.500       .  S
C1613      C2601   1.472       .  S
C1614      C2301   1.498       .  S
O1615     Cu1623   2.006       .  S
O1615      C1625   1.277       .  A
O1616     Cu1623   2.013   1_455  S
O1616      C1626   1.277       .  A
O1617     Cu1623   2.042   1_455  S
O1617      C1627   1.282       .  A
O1618     Cu1623   2.039       .  S
O1618      C1628   1.282       .  A
O1619     Cu1624   2.002       .  S
O1619      C1628   1.276       .  A
O1620     Cu1624   1.998   1_455  S
O1620      C1627   1.275       .  A
O1621     Cu1624   1.997   1_455  S
O1621      C1626   1.277       .  A
O1622     Cu1624   2.003       .  S
O1622      C1625   1.277       .  A
Cu1623    Cu1624   2.369       .  S
C1625      C2501   1.475       .  S
C1626      C1901   1.473       .  S
C1627      C2461   1.498       .  S
C1628      C1941   1.491       .  S
O1629     Cu1637   2.015       .  S
O1629      C1639   1.278       .  A
O1630     Cu1637   2.002       .  S
O1630      C1640   1.277   1_565  A
O1631     Cu1637   2.022       .  S
O1631      C1641   1.279       .  A
O1632     Cu1637   2.017       .  S
O1632      C1642   1.278       .  A
O1633     Cu1638   2.024       .  S
O1633      C1642   1.278       .  A
O1634     Cu1638   2.022       .  S
O1634      C1641   1.279       .  A
O1635     Cu1638   2.029       .  S
O1635      C1640   1.279   1_565  A
O1636     Cu1638   2.007       .  S
O1636      C1639   1.277       .  A
Cu1637    Cu1638   2.363       .  S
C1639      C2578   1.480       .  S
C1640      C2141   1.493       .  S
C1641      C2541   1.498   1_565  S
C1642      C2181   1.505       .  S
O1643     Cu1651   2.000       .  S
O1643      C1653   1.276       .  A
O1644     Cu1651   2.003   1_554  S
O1644      C1654   1.276       .  A
O1645     Cu1651   2.014   1_554  S
O1645      C1655   1.278       .  A
O1646     Cu1651   2.001       .  S
O1646      C1656   1.276       .  A
O1647     Cu1652   2.038   1_556  S
O1647      C1656   1.281       .  A
O1648     Cu1652   2.019       .  S
O1648      C1655   1.278       .  A
O1649     Cu1652   2.021       .  S
O1649      C1654   1.278       .  A
O1650     Cu1652   2.018   1_556  S
O1650      C1653   1.279       .  A
Cu1651    Cu1652   2.365   1_556  S
C1653      C2261   1.494       .  S
C1654      C1821   1.505       .  S
C1655      C2218   1.479       .  S
C1656      C1861   1.481       .  S
C1657      C1658   1.415       .  A
C1657      C1662   1.409       .  A
C1657     Br1664   1.932       .  S
C1658      C1659   1.413       .  A
C1659      C1660   1.413       .  A
C1659     Br1666   1.929       .  S
C1660      C1661   1.409       .  A
C1660     Br1665   1.928       .  S
C1661      C1662   1.409       .  A
C1662     Br1663   1.932       .  S
C1667      C1668   1.408       .  A
C1667      C1672   1.410       .  A
C1667     Br1674   1.931       .  S
C1668      C1669   1.406       .  A
C1669      C1670   1.410       .  A
C1669     Br1676   1.929       .  S
C1670      C1671   1.415       .  A
C1670     Br1675   1.930       .  S
C1671      C1672   1.416       .  A
C1672     Br1673   1.932       .  S
C1677      C1678   1.421       .  A
C1677      C1682   1.409       .  A
C1677     Br1684   1.934       .  S
C1678      C1679   1.419       .  A
C1679      C1680   1.407       .  A
C1679     Br1686   1.933       .  S
C1680      C1681   1.407       .  A
C1680     Br1685   1.934       .  S
C1681      C1682   1.406       .  A
C1682     Br1683   1.933       .  S
C1687      C1688   1.416       .  A
C1687      C1692   1.407       .  A
C1687     Br1694   1.933       .  S
C1688      C1689   1.414       .  A
C1689      C1690   1.410       .  A
C1689     Br1696   1.931       .  S
C1690      C1691   1.412       .  A
C1690     Br1695   1.932       .  S
C1691      C1692   1.409       .  A
C1692     Br1693   1.935       .  S
C1697      C1698   1.410       .  A
C1697      C1702   1.409       .  A
C1697     Br1704   1.930       .  S
C1698      C1699   1.414       .  A
C1699      C1700   1.405       .  A
C1699     Br1706   1.935       .  S
C1700      C1701   1.412       .  A
C1700     Br1705   1.936       .  S
C1701      C1702   1.411       .  A
C1702     Br1703   1.930       .  S
C1707      C1708   1.410       .  A
C1707      C1712   1.407       .  A
C1707     Br1714   1.932       .  S
C1708      C1709   1.406       .  A
C1709      C1710   1.408       .  A
C1709     Br1716   1.932       .  S
C1710      C1711   1.418       .  A
C1710     Br1715   1.933       .  S
C1711      C1712   1.416       .  A
C1712     Br1713   1.931       .  S
C1717      C1718   1.412       .  A
C1717      C1722   1.405       .  A
C1717     Br1724   1.931       .  S
C1718      C1719   1.408       .  A
C1719      C1720   1.409       .  A
C1719     Br1726   1.927       .  S
C1720      C1721   1.409       .  A
C1720     Br1725   1.928       .  S
C1721      C1722   1.406       .  A
C1722     Br1723   1.927   1_655  S
C1727      C1728   1.413       .  A
C1727      C1732   1.404       .  A
C1727     Br1734   1.932       .  S
C1728      C1729   1.410       .  A
C1729      C1730   1.412       .  A
C1729     Br1736   1.929       .  S
C1730      C1731   1.411       .  A
C1730     Br1735   1.926       .  S
C1731      C1732   1.406       .  A
C1732     Br1733   1.931       .  S
C1737      C1738   1.410       .  A
C1737      C1742   1.412       .  A
C1737     Br1744   1.928       .  S
C1738      C1739   1.413       .  A
C1739      C1740   1.409       .  A
C1739     Br1746   1.932       .  S
C1740      C1741   1.409       .  A
C1740     Br1745   1.929       .  S
C1741      C1742   1.413       .  A
C1742     Br1743   1.930       .  S
C1747      C1748   1.410       .  A
C1747      C1752   1.411       .  A
C1747     Br1754   1.935       .  S
C1748      C1749   1.411       .  A
C1749      C1750   1.415       .  A
C1749     Br1756   1.930       .  S
C1750      C1751   1.416       .  A
C1750     Br1755   1.929       .  S
C1751      C1752   1.421       .  A
C1752     Br1753   1.935       .  S
C1757      C1758   1.410       .  A
C1757      C1762   1.413       .  A
C1757     Br1764   1.928       .  S
C1758      C1759   1.410       .  A
C1759      C1760   1.407       .  A
C1759     Br1766   1.932       .  S
C1760      C1761   1.411       .  A
C1760     Br1765   1.927       .  S
C1761      C1762   1.412       .  A
C1762     Br1763   1.926       .  S
C1767      C1768   1.413       .  A
C1767      C1772   1.411       .  A
C1767     Br1774   1.929       .  S
C1768      C1769   1.416       .  A
C1769      C1770   1.409       .  A
C1769     Br1776   1.935       .  S
C1770      C1771   1.410       .  A
C1770     Br1775   1.932       .  S
C1771      C1772   1.409       .  A
C1772     Br1773   1.928       .  S
C1777      C1778   1.408       .  A
C1777      C1782   1.412       .  A
C1777     Br1784   1.933       .  S
C1778      C1779   1.405       .  A
C1779      C1780   1.411       .  A
C1779     Br1786   1.933       .  S
C1780      C1781   1.425       .  A
C1780     Br1785   1.935       .  S
C1781      C1782   1.423       .  A
C1782     Br1783   1.933       .  S
C1787      C1788   1.414       .  A
C1787      C1792   1.406       .  A
C1787     Br1794   1.936       .  S
C1788      C1789   1.415       .  A
C1789      C1790   1.416       .  A
C1789     Br1796   1.929       .  S
C1790      C1791   1.412       .  A
C1790     Br1795   1.929       .  S
C1791      C1792   1.412       .  A
C1792     Br1793   1.935       .  S
C1797      C1798   1.405       .  A
C1797      C1802   1.408       .  A
C1797     Br1804   1.932       .  S
C1798      C1799   1.408       .  A
C1799      C1800   1.411       .  A
C1799     Br1806   1.931       .  S
C1800      C1801   1.422       .  A
C1800     Br1805   1.935       .  S
C1801      C1802   1.421       .  A
C1802     Br1803   1.935       .  S
C1807      C1808   1.406       .  A
C1807      C1812   1.406       .  A
C1807     Br1814   1.929       .  S
C1808      C1809   1.411       .  A
C1809      C1810   1.406       .  A
C1809     Br1816   1.932       .  S
C1810      C1811   1.410       .  A
C1810     Br1815   1.932       .  S
C1811      C1812   1.408       .  A
C1812     Br1813   1.922       .  S
C1817      C1818   1.405       .  A
C1817      C1822   1.407       .  A
C1817     Br1824   1.936       .  S
C1818      C1819   1.405       .  A
C1819      C1820   1.414       .  A
C1819     Br1826   1.931       .  S
C1820      C1821   1.427       .  A
C1820     Br1825   1.934       .  S
C1821      C1822   1.425       .  A
C1822     Br1823   1.937       .  S
C1827      C1828   1.409       .  A
C1827      C1832   1.410       .  A
C1827     Br1834   1.931       .  S
C1828      C1829   1.407       .  A
C1829      C1830   1.406       .  A
C1829     Br1836   1.929       .  S
C1830      C1831   1.413       .  A
C1830     Br1835   1.933       .  S
C1831      C1832   1.413       .  A
C1832     Br1833   1.927       .  S
C1837      C1838   1.403       .  A
C1837      C1842   1.411       .  A
C1837     Br1844   1.935       .  S
C1838      C1839   1.406       .  A
C1839      C1840   1.412       .  A
C1839     Br1846   1.932       .  S
C1840      C1841   1.423       .  A
C1840     Br1845   1.933       .  S
C1841      C1842   1.427       .  A
C1842     Br1843   1.933       .  S
C1847      C1848   1.425       .  A
C1847      C1852   1.409       .  A
C1847     Br1854   1.934       .  S
C1848      C1849   1.423       .  A
C1849      C1850   1.414       .  A
C1849     Br1856   1.931       .  S
C1850      C1851   1.406       .  A
C1850     Br1855   1.931       .  S
C1851      C1852   1.404       .  A
C1852     Br1853   1.935       .  S
C1857      C1858   1.412       .  A
C1857      C1862   1.414       .  A
C1857     Br1864   1.927       .  S
C1858      C1859   1.415       .  A
C1859      C1860   1.410       .  A
C1859     Br1866   1.931       .  S
C1860      C1861   1.407       .  A
C1860     Br1865   1.930       .  S
C1861      C1862   1.410       .  A
C1862     Br1863   1.929       .  S
C1867      C1868   1.414       .  A
C1867      C1872   1.409       .  A
C1867     Br1874   1.932       .  S
C1868      C1869   1.410       .  A
C1869      C1870   1.415       .  A
C1869     Br1876   1.928       .  S
C1870      C1871   1.412       .  A
C1870     Br1875   1.924       .  S
C1871      C1872   1.409       .  A
C1872     Br1873   1.926       .  S
C1877      C1878   1.405       .  A
C1877      C1882   1.410       .  A
C1877     Br1884   1.932       .  S
C1878      C1879   1.407       .  A
C1879      C1880   1.414       .  A
C1879     Br1886   1.932       .  S
C1880      C1881   1.424       .  A
C1880     Br1885   1.933       .  S
C1881      C1882   1.423       .  A
C1882     Br1883   1.935       .  S
C1887      C1888   1.407       .  A
C1887      C1892   1.413       .  A
C1887     Br1894   1.932       .  S
C1888      C1889   1.407       .  A
C1889      C1890   1.410       .  A
C1889     Br1896   1.935       .  S
C1890      C1891   1.424       .  A
C1890     Br1895   1.937       .  S
C1891      C1892   1.426       .  A
C1892     Br1893   1.937       .  S
C1897      C1898   1.412       .  A
C1897      C1902   1.406       .  A
C1897     Br1904   1.932       .  S
C1898      C1899   1.409       .  A
C1899      C1900   1.408       .  A
C1899     Br1906   1.927       .  S
C1900      C1901   1.408       .  A
C1900     Br1905   1.930       .  S
C1901      C1902   1.410       .  A
C1902     Br1903   1.932   1_455  S
C1907      C1908   1.407       .  A
C1907      C1912   1.408       .  A
C1907     Br1914   1.931       .  S
C1908      C1909   1.410       .  A
C1909      C1910   1.408       .  A
C1909     Br1916   1.931       .  S
C1910      C1911   1.414       .  A
C1910     Br1915   1.933       .  S
C1911      C1912   1.414       .  A
C1912     Br1913   1.932       .  S
C1917      C1918   1.416       .  A
C1917      C1922   1.408       .  A
C1917     Br1924   1.935       .  S
C1918      C1919   1.413       .  A
C1919      C1920   1.415       .  A
C1919     Br1926   1.928       .  S
C1920      C1921   1.414       .  A
C1920     Br1925   1.931       .  S
C1921      C1922   1.414       .  A
C1922     Br1923   1.938   1_455  S
C1927      C1928   1.404       .  A
C1927      C1932   1.411       .  A
C1927     Br1934   1.934       .  S
C1928      C1929   1.407       .  A
C1929      C1930   1.415       .  A
C1929     Br1936   1.932       .  S
C1930      C1931   1.425       .  A
C1930     Br1935   1.933       .  S
C1931      C1932   1.429       .  A
C1932     Br1933   1.936       .  S
C1937      C1938   1.413       .  A
C1937      C1942   1.416       .  A
C1937     Br1944   1.928       .  S
C1938      C1939   1.413       .  A
C1939      C1940   1.407       .  A
C1939     Br1946   1.935       .  S
C1940      C1941   1.415       .  A
C1940     Br1945   1.936       .  S
C1941      C1942   1.414       .  A
C1942     Br1943   1.929       .  S
C1947      C1948   1.405       .  A
C1947      C1952   1.409       .  A
C1947     Br1954   1.932       .  S
C1948      C1949   1.407       .  A
C1949      C1950   1.411       .  A
C1949     Br1956   1.932       .  S
C1950      C1951   1.421       .  A
C1950     Br1955   1.933       .  S
C1951      C1952   1.422       .  A
C1952     Br1953   1.934       .  S
C1957      C1958   1.407       .  A
C1957      C1962   1.409       .  A
C1957     Br1964   1.928       .  S
C1958      C1959   1.408       .  A
C1959      C1960   1.409       .  A
C1959     Br1966   1.931       .  S
C1960      C1961   1.416       .  A
C1960     Br1965   1.932       .  S
C1961      C1962   1.413       .  A
C1962     Br1963   1.929       .  S
C1967      C1968   1.406       .  A
C1967      C1972   1.410       .  A
C1967     Br1974   1.928       .  S
C1968      C1969   1.409       .  A
C1969      C1970   1.409       .  A
C1969     Br1976   1.929       .  S
C1970      C1971   1.409       .  A
C1970     Br1975   1.923       .  S
C1971      C1972   1.411       .  A
C1972     Br1973   1.923       .  S
C1977      C1978   1.402       .  A
C1977      C1982   1.405       .  A
C1977     Br1984   1.935       .  S
C1978      C1979   1.405       .  A
C1979      C1980   1.408       .  A
C1979     Br1986   1.933       .  S
C1980      C1981   1.422       .  A
C1980     Br1985   1.936       .  S
C1981      C1982   1.425       .  A
C1982     Br1983   1.938       .  S
C1987      C1988   1.404       .  A
C1987      C1992   1.404       .  A
C1987     Br1994   1.930       .  S
C1988      C1989   1.409       .  A
C1989      C1990   1.408       .  A
C1989     Br1996   1.931       .  S
C1990      C1991   1.413       .  A
C1990     Br1995   1.929       .  S
C1991      C1992   1.413       .  A
C1992     Br1993   1.932       .  S
C1997      C1998   1.413       .  A
C1997      C2002   1.408       .  A
C1997     Br2004   1.935       .  S
C1998      C1999   1.409       .  A
C1999      C2000   1.413       .  A
C1999     Br2006   1.929       .  S
C2000      C2001   1.416       .  A
C2000     Br2005   1.931       .  S
C2001      C2002   1.416       .  A
C2002     Br2003   1.937   1_554  S
C2007      C2008   1.406       .  A
C2007      C2012   1.413       .  A
C2007     Br2014   1.935       .  S
C2008      C2009   1.406       .  A
C2009      C2010   1.416       .  A
C2009     Br2016   1.934       .  S
C2010      C2011   1.427       .  A
C2010     Br2015   1.932       .  S
C2011      C2012   1.428       .  A
C2012     Br2013   1.936       .  S
C2017      C2018   1.415       .  A
C2017      C2022   1.412       .  A
C2017     Br2024   1.928       .  S
C2018      C2019   1.417       .  A
C2019      C2020   1.405       .  A
C2019     Br2026   1.935       .  S
C2020      C2021   1.407       .  A
C2020     Br2025   1.931       .  S
C2021      C2022   1.407       .  A
C2022     Br2023   1.929       .  S
C2027      C2028   1.413       .  A
C2027      C2032   1.416       .  A
C2027     Br2034   1.928       .  S
C2028      C2029   1.414       .  A
C2029      C2030   1.403       .  A
C2029     Br2036   1.934       .  S
C2030      C2031   1.407       .  A
C2030     Br2035   1.931       .  S
C2031      C2032   1.412       .  A
C2032     Br2033   1.926       .  S
C2037      C2038   1.411       .  A
C2037      C2042   1.410       .  A
C2037     Br2044   1.930       .  S
C2038      C2039   1.406       .  A
C2039      C2040   1.408       .  A
C2039     Br2046   1.928       .  S
C2040      C2041   1.411       .  A
C2040     Br2045   1.924       .  S
C2041      C2042   1.411       .  A
C2042     Br2043   1.931       .  S
C2047      C2048   1.418       .  A
C2047      C2052   1.412       .  A
C2047     Br2054   1.932       .  S
C2048      C2049   1.416       .  A
C2049      C2050   1.408       .  A
C2049     Br2056   1.926       .  S
C2050      C2051   1.404       .  A
C2050     Br2055   1.931       .  S
C2051      C2052   1.408       .  A
C2052     Br2053   1.929       .  S
C2057      C2058   1.406       .  A
C2057      C2062   1.410       .  A
C2057     Br2064   1.930       .  S
C2058      C2059   1.404       .  A
C2059      C2060   1.404       .  A
C2059     Br2066   1.931       .  S
C2060      C2061   1.413       .  A
C2060     Br2065   1.922       .  S
C2061      C2062   1.418       .  A
C2062     Br2063   1.931       .  S
C2067      C2068   1.405       .  A
C2067      C2072   1.408       .  A
C2067     Br2074   1.933       .  S
C2068      C2069   1.402       .  A
C2069      C2070   1.405       .  A
C2069     Br2076   1.933       .  S
C2070      C2071   1.421       .  A
C2070     Br2075   1.935       .  S
C2071      C2072   1.421       .  A
C2072     Br2073   1.932       .  S
C2077      C2078   1.406       .  A
C2077      C2082   1.409       .  A
C2077     Br2084   1.928       .  S
C2078      C2079   1.409       .  A
C2079      C2080   1.409       .  A
C2079     Br2086   1.931       .  S
C2080      C2081   1.412       .  A
C2080     Br2085   1.929   1_554  S
C2081      C2082   1.413       .  A
C2082     Br2083   1.929       .  S
C2087      C2088   1.406       .  A
C2087      C2092   1.410       .  A
C2087     Br2094   1.933       .  S
C2088      C2089   1.403       .  A
C2089      C2090   1.407       .  A
C2089     Br2096   1.935       .  S
C2090      C2091   1.423       .  A
C2090     Br2095   1.930       .  S
C2091      C2092   1.423       .  A
C2092     Br2093   1.933       .  S
C2097      C2098   1.412       .  A
C2097      C2102   1.403       .  A
C2097     Br2104   1.933       .  S
C2098      C2099   1.410       .  A
C2099      C2100   1.411       .  A
C2099     Br2106   1.927       .  S
C2100      C2101   1.409       .  A
C2100     Br2105   1.928       .  S
C2101      C2102   1.407       .  A
C2102     Br2103   1.925       .  S
C2107      C2108   1.407       .  A
C2107      C2112   1.405       .  A
C2107     Br2114   1.933       .  S
C2108      C2109   1.410       .  A
C2109      C2110   1.413       .  A
C2109     Br2116   1.930       .  S
C2110      C2111   1.419       .  A
C2110     Br2115   1.931       .  S
C2111      C2112   1.416       .  A
C2112     Br2113   1.934       .  S
C2117      C2118   1.406       .  A
C2117      C2122   1.409       .  A
C2117     Br2124   1.937       .  S
C2118      C2119   1.408       .  A
C2119      C2120   1.414       .  A
C2119     Br2126   1.933       .  S
C2120      C2121   1.428       .  A
C2120     Br2125   1.936       .  S
C2121      C2122   1.426       .  A
C2122     Br2123   1.937       .  S
C2127      C2128   1.412       .  A
C2127      C2132   1.407       .  A
C2127     Br2134   1.932       .  S
C2128      C2129   1.409       .  A
C2129      C2130   1.412       .  A
C2129     Br2136   1.929       .  S
C2130      C2131   1.410       .  A
C2130     Br2135   1.924       .  S
C2131      C2132   1.407       .  A
C2132     Br2133   1.928       .  S
C2137      C2138   1.406       .  A
C2137      C2142   1.409       .  A
C2137     Br2144   1.929       .  S
C2138      C2139   1.408       .  A
C2139      C2140   1.410       .  A
C2139     Br2146   1.932       .  S
C2140      C2141   1.417       .  A
C2140     Br2145   1.927   1_545  S
C2141      C2142   1.417       .  A
C2142     Br2143   1.932       .  S
C2147      C2148   1.410       .  A
C2147      C2152   1.412       .  A
C2147     Br2154   1.927       .  S
C2148      C2149   1.411       .  A
C2149      C2150   1.405       .  A
C2149     Br2156   1.931       .  S
C2150      C2151   1.407       .  A
C2150     Br2155   1.929       .  S
C2151      C2152   1.410       .  A
C2152     Br2153   1.928       .  S
C2157      C2158   1.411       .  A
C2157      C2162   1.412       .  A
C2157     Br2164   1.930       .  S
C2158      C2159   1.412   1_545  A
C2159      C2160   1.407   1_565  A
C2159     Br2166   1.937       .  S
C2160      C2161   1.416       .  A
C2160     Br2165   1.934       .  S
C2161      C2162   1.413       .  A
C2162     Br2163   1.930       .  S
C2167      C2168   1.418       .  A
C2167      C2172   1.411       .  A
C2167     Br2174   1.933       .  S
C2168      C2169   1.420       .  A
C2169      C2170   1.411       .  A
C2169     Br2176   1.935       .  S
C2170      C2171   1.410       .  A
C2170     Br2175   1.933       .  S
C2171      C2172   1.411       .  A
C2172     Br2173   1.932       .  S
C2177      C2178   1.406       .  A
C2177      C2182   1.413       .  A
C2177     Br2184   1.933       .  S
C2178      C2179   1.405       .  A
C2179      C2180   1.408       .  A
C2179     Br2186   1.935       .  S
C2180      C2181   1.424       .  A
C2180     Br2185   1.932       .  S
C2181      C2182   1.426       .  A
C2182     Br2183   1.931       .  S
C2187      C2188   1.404       .  A
C2187      C2192   1.405       .  A
C2187     Br2194   1.929       .  S
C2188      C2189   1.409       .  A
C2189      C2190   1.410       .  A
C2189     Br2196   1.930       .  S
C2190      C2191   1.414       .  A
C2190     Br2195   1.931       .  S
C2191      C2192   1.412       .  A
C2192     Br2193   1.924       .  S
C2197      C2198   1.408       .  A
C2197      C2202   1.409       .  A
C2197     Br2204   1.932       .  S
C2198      C2199   1.405       .  A
C2199      C2200   1.408       .  A
C2199     Br2206   1.930       .  S
C2200      C2201   1.416       .  A
C2200     Br2205   1.932       .  S
C2201      C2202   1.417       .  A
C2202     Br2203   1.932       .  S
C2207      C2208   1.414       .  A
C2207      C2212   1.412       .  A
C2207     Br2214   1.930       .  S
C2208      C2209   1.415       .  A
C2209      C2210   1.406       .  A
C2209     Br2216   1.934       .  S
C2210      C2211   1.408       .  A
C2210     Br2215   1.933       .  S
C2211      C2212   1.410       .  A
C2212     Br2213   1.930       .  S
C2217      C2218   1.410       .  A
C2217      C2222   1.410       .  A
C2217     Br2224   1.926       .  S
C2218      C2219   1.409       .  A
C2219      C2220   1.409       .  A
C2219     Br2226   1.931       .  S
C2220      C2221   1.412       .  A
C2220     Br2225   1.931       .  S
C2221      C2222   1.408       .  A
C2222     Br2223   1.928       .  S
C2227      C2228   1.413       .  A
C2227      C2232   1.412       .  A
C2227     Br2234   1.928       .  S
C2228      C2229   1.418       .  A
C2229      C2230   1.406       .  A
C2229     Br2236   1.934       .  S
C2230      C2231   1.406       .  A
C2230     Br2235   1.933       .  S
C2231      C2232   1.409       .  A
C2232     Br2233   1.931       .  S
C2237      C2238   1.406       .  A
C2237      C2242   1.408       .  A
C2237     Br2244   1.929       .  S
C2238      C2239   1.410       .  A
C2239      C2240   1.408       .  A
C2239     Br2246   1.929       .  S
C2240      C2241   1.407       .  A
C2240     Br2245   1.925   1_554  S
C2241      C2242   1.410       .  A
C2242     Br2243   1.923       .  S
C2247      C2248   1.407       .  A
C2247      C2252   1.409       .  A
C2247     Br2254   1.930       .  S
C2248      C2249   1.405       .  A
C2249      C2250   1.407       .  A
C2249     Br2256   1.931       .  S
C2250      C2251   1.416       .  A
C2250     Br2255   1.931       .  S
C2251      C2252   1.416       .  A
C2252     Br2253   1.934       .  S
C2257      C2258   1.409       .  A
C2257      C2262   1.407       .  A
C2257     Br2264   1.936       .  S
C2258      C2259   1.406       .  A
C2259      C2260   1.412       .  A
C2259     Br2266   1.929       .  S
C2260      C2261   1.419       .  A
C2260     Br2265   1.933       .  S
C2261      C2262   1.421       .  A
C2262     Br2263   1.937       .  S
C2267      C2268   1.405       .  A
C2267      C2272   1.410       .  A
C2267     Br2274   1.933       .  S
C2268      C2269   1.406       .  A
C2269      C2270   1.410       .  A
C2269     Br2276   1.934       .  S
C2270      C2271   1.425       .  A
C2270     Br2275   1.934       .  S
C2271      C2272   1.424       .  A
C2272     Br2273   1.934       .  S
C2277      C2278   1.406       .  A
C2277      C2282   1.403       .  A
C2277     Br2284   1.931       .  S
C2278      C2279   1.410       .  A
C2279      C2280   1.412       .  A
C2279     Br2286   1.928       .  S
C2280      C2281   1.413       .  A
C2280     Br2285   1.928       .  S
C2281      C2282   1.414       .  A
C2282     Br2283   1.934       .  S
C2287      C2288   1.405       .  A
C2287      C2292   1.407       .  A
C2287     Br2294   1.930       .  S
C2288      C2289   1.407       .  A
C2289      C2290   1.409       .  A
C2289     Br2296   1.932       .  S
C2290      C2291   1.415       .  A
C2290     Br2295   1.926       .  S
C2291      C2292   1.415       .  A
C2292     Br2293   1.932       .  S
C2297      C2298   1.407       .  A
C2297      C2302   1.412       .  A
C2297     Br2304   1.931       .  S
C2298      C2299   1.403       .  A
C2299      C2300   1.407       .  A
C2299     Br2306   1.933       .  S
C2300      C2301   1.421       .  A
C2300     Br2305   1.930       .  S
C2301      C2302   1.421       .  A
C2302     Br2303   1.932       .  S
C2307      C2308   1.405       .  A
C2307      C2312   1.401       .  A
C2307     Br2314   1.929       .  S
C2308      C2309   1.409       .  A
C2309      C2310   1.409       .  A
C2309     Br2316   1.929       .  S
C2310      C2311   1.411       .  A
C2310     Br2315   1.928       .  S
C2311      C2312   1.412       .  A
C2312     Br2313   1.932       .  S
C2317      C2318   1.407       .  A
C2317      C2322   1.403       .  A
C2317     Br2324   1.928   1_545  S
C2318      C2319   1.410       .  A
C2319      C2320   1.411       .  A
C2319     Br2326   1.928       .  S
C2320      C2321   1.410       .  A
C2320     Br2325   1.928       .  S
C2321      C2322   1.412       .  A
C2322     Br2323   1.934       .  S
C2327      C2328   1.412       .  A
C2327      C2332   1.403       .  A
C2327     Br2334   1.921       .  S
C2328      C2329   1.416       .  A
C2329      C2330   1.409       .  A
C2329     Br2336   1.932       .  S
C2330      C2331   1.407       .  A
C2330     Br2335   1.929       .  S
C2331      C2332   1.402       .  A
C2332     Br2333   1.930       .  S
C2337      C2338   1.406       .  A
C2337      C2342   1.413       .  A
C2337     Br2344   1.931       .  S
C2338      C2339   1.404       .  A
C2339      C2340   1.408       .  A
C2339     Br2346   1.934       .  S
C2340      C2341   1.423       .  A
C2340     Br2345   1.935       .  S
C2341      C2342   1.422       .  A
C2342     Br2343   1.932       .  S
C2347      C2348   1.414       .  A
C2347      C2352   1.407       .  A
C2347     Br2354   1.932       .  S
C2348      C2349   1.417       .  A
C2349      C2350   1.410       .  A
C2349     Br2356   1.932       .  S
C2350      C2351   1.408       .  A
C2350     Br2355   1.931       .  S
C2351      C2352   1.405       .  A
C2352     Br2353   1.929       .  S
C2357      C2358   1.405       .  A
C2357      C2362   1.407       .  A
C2357     Br2364   1.935       .  S
C2358      C2359   1.407       .  A
C2359      C2360   1.410       .  A
C2359     Br2366   1.934       .  S
C2360      C2361   1.422       .  A
C2360     Br2365   1.934       .  S
C2361      C2362   1.422       .  A
C2362     Br2363   1.936       .  S
C2367      C2368   1.414       .  A
C2367      C2372   1.407       .  A
C2367     Br2374   1.935       .  S
C2368      C2369   1.410       .  A
C2369      C2370   1.409       .  A
C2369     Br2376   1.930       .  S
C2370      C2371   1.414       .  A
C2370     Br2375   1.932       .  S
C2371      C2372   1.415       .  A
C2372     Br2373   1.935       .  S
C2377      C2378   1.411       .  A
C2377      C2382   1.411       .  A
C2377     Br2384   1.929       .  S
C2378      C2379   1.406       .  A
C2379      C2380   1.408       .  A
C2379     Br2386   1.928       .  S
C2380      C2381   1.413       .  A
C2380     Br2385   1.931       .  S
C2381      C2382   1.412       .  A
C2382     Br2383   1.929   1_545  S
C2387      C2388   1.412       .  A
C2387      C2392   1.414       .  A
C2387     Br2394   1.926       .  S
C2388      C2389   1.413       .  A
C2389      C2390   1.405       .  A
C2389     Br2396   1.932       .  S
C2390      C2391   1.406       .  A
C2390     Br2395   1.929       .  S
C2391      C2392   1.410       .  A
C2392     Br2393   1.926       .  S
C2397      C2398   1.410       .  A
C2397      C2402   1.413       .  A
C2397     Br2404   1.930       .  S
C2398      C2399   1.404       .  A
C2399      C2400   1.405       .  A
C2399     Br2406   1.930       .  S
C2400      C2401   1.417       .  A
C2400     Br2405   1.934       .  S
C2401      C2402   1.418       .  A
C2402     Br2403   1.931       .  S
C2407      C2408   1.407       .  A
C2407      C2412   1.405       .  A
C2407     Br2414   1.933       .  S
C2408      C2409   1.412       .  A
C2409      C2410   1.413       .  A
C2409     Br2416   1.930       .  S
C2410      C2411   1.417       .  A
C2410     Br2415   1.931       .  S
C2411      C2412   1.416       .  A
C2412     Br2413   1.934       .  S
C2417      C2418   1.414       .  A
C2417      C2422   1.413       .  A
C2417     Br2424   1.930       .  S
C2418      C2419   1.419       .  A
C2419      C2420   1.407       .  A
C2419     Br2426   1.934       .  S
C2420      C2421   1.406       .  A
C2420     Br2425   1.934       .  S
C2421      C2422   1.410       .  A
C2422     Br2423   1.929       .  S
C2427      C2428   1.405       .  A
C2427      C2432   1.406       .  A
C2427     Br2434   1.930       .  S
C2428      C2429   1.409       .  A
C2429      C2430   1.415       .  A
C2429     Br2436   1.928       .  S
C2430      C2431   1.415       .  A
C2430     Br2435   1.928       .  S
C2431      C2432   1.417       .  A
C2432     Br2433   1.934       .  S
C2437      C2438   1.412       .  A
C2437      C2442   1.408       .  A
C2437     Br2444   1.932       .  S
C2438      C2439   1.410       .  A
C2439      C2440   1.414       .  A
C2439     Br2446   1.928       .  S
C2440      C2441   1.411       .  A
C2440     Br2445   1.926       .  S
C2441      C2442   1.410       .  A
C2442     Br2443   1.925       .  S
C2447      C2448   1.405       .  A
C2447      C2452   1.408       .  A
C2447     Br2454   1.932       .  S
C2448      C2449   1.409       .  A
C2449      C2450   1.416       .  A
C2449     Br2456   1.930       .  S
C2450      C2451   1.422       .  A
C2450     Br2455   1.932       .  S
C2451      C2452   1.421       .  A
C2452     Br2453   1.935       .  S
C2457      C2458   1.410       .  A
C2457      C2462   1.407       .  A
C2457     Br2464   1.936       .  S
C2458      C2459   1.411       .  A
C2459      C2460   1.417       .  A
C2459     Br2466   1.928       .  S
C2460      C2461   1.417       .  A
C2460     Br2465   1.930       .  S
C2461      C2462   1.420       .  A
C2462     Br2463   1.937   1_455  S
C2467      C2468   1.417       .  A
C2467      C2472   1.406       .  A
C2467     Br2474   1.934       .  S
C2468      C2469   1.419       .  A
C2469      C2470   1.412       .  A
C2469     Br2476   1.932       .  S
C2470      C2471   1.407       .  A
C2470     Br2475   1.929       .  S
C2471      C2472   1.407       .  A
C2472     Br2473   1.932       .  S
C2477      C2478   1.414       .  A
C2477      C2482   1.407       .  A
C2477     Br2484   1.936       .  S
C2478      C2479   1.408       .  A
C2479      C2480   1.411       .  A
C2479     Br2486   1.930       .  S
C2480      C2481   1.417       .  A
C2480     Br2485   1.933       .  S
C2481      C2482   1.415       .  A
C2482     Br2483   1.937       .  S
C2487      C2488   1.408       .  A
C2487      C2492   1.410       .  A
C2487     Br2494   1.927       .  S
C2488      C2489   1.408       .  A
C2489      C2490   1.407       .  A
C2489     Br2496   1.929       .  S
C2490      C2491   1.409       .  A
C2490     Br2495   1.924       .  S
C2491      C2492   1.409       .  A
C2492     Br2493   1.926       .  S
C2497      C2498   1.407       .  A
C2497      C2502   1.407       .  A
C2497     Br2504   1.929       .  S
C2498      C2499   1.408       .  A
C2499      C2500   1.406       .  A
C2499     Br2506   1.931       .  S
C2500      C2501   1.414       .  A
C2500     Br2505   1.933       .  S
C2501      C2502   1.410       .  A
C2502     Br2503   1.929       .  S
C2507      C2508   1.404       .  A
C2507      C2512   1.405       .  A
C2507     Br2514   1.929       .  S
C2508      C2509   1.407       .  A
C2509      C2510   1.410       .  A
C2509     Br2516   1.930       .  S
C2510      C2511   1.418       .  A
C2510     Br2515   1.932       .  S
C2511      C2512   1.415       .  A
C2512     Br2513   1.931       .  S
C2517      C2518   1.408       .  A
C2517      C2522   1.408       .  A
C2517     Br2524   1.932       .  S
C2518      C2519   1.407       .  A
C2519      C2520   1.411       .  A
C2519     Br2526   1.929       .  S
C2520      C2521   1.414       .  A
C2520     Br2525   1.925       .  S
C2521      C2522   1.416       .  A
C2522     Br2523   1.933       .  S
C2527      C2528   1.412       .  A
C2527      C2532   1.413       .  A
C2527     Br2534   1.928       .  S
C2528      C2529   1.414       .  A
C2529      C2530   1.405       .  A
C2529     Br2536   1.933       .  S
C2530      C2531   1.407       .  A
C2530     Br2535   1.930       .  S
C2531      C2532   1.410       .  A
C2532     Br2533   1.928       .  S
C2537      C2538   1.412       .  A
C2537      C2542   1.412       .  A
C2537     Br2544   1.934       .  S
C2538      C2539   1.409       .  A
C2539      C2540   1.415       .  A
C2539     Br2546   1.929       .  S
C2540      C2541   1.418       .  A
C2540     Br2545   1.932       .  S
C2541      C2542   1.419       .  A
C2542     Br2543   1.935   1_545  S
C2547      C2548   1.404       .  A
C2547      C2552   1.410       .  A
C2547     Br2554   1.933       .  S
C2548      C2549   1.406       .  A
C2549      C2550   1.413       .  A
C2549     Br2556   1.930       .  S
C2550      C2551   1.423       .  A
C2550     Br2555   1.933       .  S
C2551      C2552   1.424       .  A
C2552     Br2553   1.933       .  S
C2557      C2558   1.424       .  A
C2557      C2562   1.407       .  A
C2557     Br2564   1.933       .  S
C2558      C2559   1.427       .  A
C2559      C2560   1.412       .  A
C2559     Br2566   1.934       .  S
C2560      C2561   1.403       .  A
C2560     Br2565   1.932       .  S
C2561      C2562   1.403       .  A
C2562     Br2563   1.934       .  S
C2567      C2568   1.409       .  A
C2567      C2572   1.408       .  A
C2567     Br2574   1.930       .  S
C2568      C2569   1.407       .  A
C2569      C2570   1.405       .  A
C2569     Br2576   1.932       .  S
C2570      C2571   1.415       .  A
C2570     Br2575   1.935       .  S
C2571      C2572   1.414       .  A
C2572     Br2573   1.932       .  S
C2577      C2578   1.413       .  A
C2577      C2582   1.406       .  A
C2577     Br2584   1.934       .  S
C2578      C2579   1.412       .  A
C2579      C2580   1.409       .  A
C2579     Br2586   1.923       .  S
C2580      C2581   1.406       .  A
C2580     Br2585   1.930       .  S
C2581      C2582   1.409       .  A
C2582     Br2583   1.931       .  S
C2587      C2588   1.411       .  A
C2587      C2592   1.414       .  A
C2587     Br2594   1.928       .  S
C2588      C2589   1.414       .  A
C2589      C2590   1.408       .  A
C2589     Br2596   1.933       .  S
C2590      C2591   1.408       .  A
C2590     Br2595   1.930       .  S
C2591      C2592   1.410       .  A
C2592     Br2593   1.925       .  S
C2597      C2598   1.413       .  A
C2597      C2602   1.405       .  A
C2597     Br2604   1.932       .  S
C2598      C2599   1.410       .  A
C2599      C2600   1.410       .  A
C2599     Br2606   1.927       .  S
C2600      C2601   1.408       .  A
C2600     Br2605   1.926       .  S
C2601      C2602   1.406       .  A
C2602     Br2603   1.930       .  S
C2607      C2608   1.405       .  A
C2607      C2612   1.404       .  A
C2607     Br2614   1.930       .  S
C2608      C2609   1.407       .  A
C2609      C2610   1.411       .  A
C2609     Br2616   1.929       .  S
C2610      C2611   1.418       .  A
C2610     Br2615   1.931       .  S
C2611      C2612   1.415       .  A
C2612     Br2613   1.934       .  S
