geometry optimzed in LAMMPS
_audit_creation_date              2020-11-30 
_audit_creation_method            'lammps2cif' 
_symmetry_space_group_name_H-M    'P1' 
_symmetry_Int_Tables_number       1 
_symmetry_cell_setting            triclinic 
loop_ 
_symmetry_equiv_pos_as_xyz 
  x,y,z 
_cell_length_a                    59.35126367674499 
_cell_length_b                    59.44259449874956 
_cell_length_c                    49.07415009346564 
_cell_angle_alpha                 95.34444264253409 
_cell_angle_beta                  90.4407852338166 
_cell_angle_gamma                 119.97713078864496 
loop_ 
_atom_site_label 
_atom_site_type_symbol 
_atom_site_fract_x 
_atom_site_fract_y 
_atom_site_fract_z 
_atom_site_charge 
O1          O  0.36245661  0.32842374  0.30764629    -0.75680
O2          O  0.40244156  0.36239981  0.29999388    -0.54580
C3          C  0.37780500  0.34786615  0.29462771     0.78050
O4          O  0.37816037  0.34850406  0.44466903    -0.60280
O5          O  0.37817556  0.31155056  0.45340626    -0.53310
C6          C  0.37312608  0.33031865  0.45961690     0.70070
O7          O  0.40666824  0.40012343  0.38047490    -0.74840
O8          O  0.42732195  0.40434631  0.34071160    -0.55400
C9          C  0.41707735  0.41186686  0.35964153     0.76070
O10         O  0.34023160  0.26590739  0.36529240    -0.59980
O11         O  0.35681110  0.26389072  0.40672562    -0.53100
C12         C  0.33933587  0.25468498  0.38668863     0.72660
Zr13       Zr  0.36665879  0.30575601  0.34526389     2.54710
O14         O  0.32517170  0.30411927  0.35082311    -0.80550
O15         O  0.34829125  0.27100955  0.30723544    -0.93960
Zr16       Zr  0.39858503  0.36381509  0.40363924     2.64680
O17         O  0.35847764  0.36566535  0.40329028    -0.98920
O18         O  0.42029153  0.40255912  0.43682064    -0.80980
O19         O  0.38982973  0.35126484  0.35614410    -0.84340
O20         O  0.37392463  0.31814313  0.39358575    -2.19050
O21         O  0.41690992  0.26247008  0.36237756    -0.67730
O22         O  0.40276275  0.26289686  0.40564137    -0.52290
C23         C  0.40830583  0.25221801  0.38463725     0.71040
O24         O  0.49163769  0.38723851  0.36736316    -0.60630
O25         O  0.47250477  0.40494469  0.34463773    -0.52610
C26         C  0.49182642  0.40676128  0.35829165     0.72850
O27         O  0.47173381  0.34041899  0.43606402    -0.72030
O28         O  0.43247530  0.31112368  0.45105260    -0.50710
C29         C  0.45771682  0.32556057  0.45357535     0.74230
O30         O  0.45952108  0.32553971  0.30706864    -0.67360
O31         O  0.45415047  0.35987599  0.30046859    -0.54560
C32         C  0.46416585  0.34538876  0.29459798     0.72610
Zr33       Zr  0.43158790  0.30332583  0.34352885     2.77540
O34         O  0.46908352  0.29701648  0.34529792    -0.98110
O35         O  0.41055426  0.27033180  0.30424214    -0.78930
Zr36       Zr  0.46395443  0.36229607  0.40180964     2.70070
O37         O  0.50953380  0.37669706  0.41304593    -0.80180
O38         O  0.47592350  0.40048219  0.43457871    -0.99260
Zr39       Zr  0.43082347  0.36573896  0.33727223     2.21500
Zr40       Zr  0.39979389  0.30237316  0.41328523     2.11130
O41         O  0.44010933  0.31616486  0.39163629    -2.47950
O42         O  0.45651337  0.34899795  0.35420168    -0.79970
O43         O  0.39185758  0.28977732  0.36459634    -0.72160
O44         O  0.43958192  0.38003283  0.38519932    -2.33120
O45         O  0.40671511  0.31986728  0.32444264    -2.29330
O46         O  0.42420104  0.34847938  0.42348940    -0.73920
H47         H  0.35736849  0.31139404  0.40184754     0.78070
H48         H  0.44935830  0.39885013  0.38892902     0.79160
H49         H  0.44917626  0.30790103  0.39836123     0.81390
H50         H  0.40421015  0.31585022  0.30474052     0.78990
H51         H  0.40872964  0.41012359  0.43720469     0.42030
H52         H  0.46094403  0.39532792  0.44620017     0.41000
H53         H  0.01323163  0.36492986  0.40070261     0.40680
H54         H  0.46984107  0.29209980  0.36386710     0.38610
H55         H  0.41533689  0.28020238  0.28805046     0.41740
H56         H  0.36242051  0.27560260  0.29450258     0.36530
H57         H  0.32993050  0.32260822  0.35534887     0.42640
H58         H  0.34461339  0.34794135  0.40656551     0.39060
H59         H  0.46374007  0.28084673  0.33285326     0.43980
H60         H  0.33526842  0.27367386  0.29752596     0.42700
H61         H  0.36013447  0.37693255  0.42025695     0.42840
H62         H  0.49004275  0.40194079  0.44680639     0.43190
O63         O  0.42353041  0.15509997  0.40576480    -0.75680
O64         O  0.41015521  0.14443357  0.36049365    -0.54580
C65         C  0.41638489  0.15965724  0.38324896     0.78050
O66         O  0.48993076  0.08377828  0.39516279    -0.60280
O67         O  0.46794972  0.05919346  0.42927164    -0.53310
C68         C  0.48779923  0.07000749  0.41469531     0.70070
O69         O  0.47167551  0.11876354  0.32947145    -0.74840
O70         O  0.43660331  0.12131043  0.31445885    -0.55400
C71         C  0.45971033  0.12425139  0.31176566     0.76070
O72         O  0.45634962  0.12598977  0.46532698    -0.59980
O73         O  0.45175297  0.08606856  0.46900230    -0.53100
C74         C  0.46170754  0.11067004  0.47713125     0.72660
Zr75       Zr  0.43194915  0.12375839  0.42446348     2.54710
O76         O  0.47150413  0.16629039  0.43202946    -0.80550
O77         O  0.41029701  0.13456639  0.46101439    -0.93960
Zr78       Zr  0.46425104  0.09767676  0.37047360     2.64680
O79         O  0.50454464  0.13914863  0.38141465    -0.98920
O80         O  0.48516574  0.07786675  0.34325181    -0.80980
O81         O  0.44337271  0.12268226  0.37813650    -0.84340
O82         O  0.45469086  0.10087815  0.41624303    -2.19050
O83         O  0.35562328  0.02726162  0.44340533    -0.67730
O84         O  0.39339931  0.02892663  0.45666644    -0.52290
C85         C  0.36855682  0.01941997  0.45734655     0.71040
O86         O  0.36485025  0.03425055  0.32137919    -0.60630
O87         O  0.38548621  0.07299013  0.30497628    -0.52610
C88         C  0.37120925  0.04784717  0.30123166     0.72850
O89         O  0.40248061  0.00307138  0.37243477    -0.72030
O90         O  0.42254344  0.01564126  0.41544230    -0.50710
C91         C  0.41241253  0.99961406  0.39357787     0.74230
O92         O  0.33857538  0.06989048  0.38070317    -0.67360
O93         O  0.36028988  0.09496490  0.34647504    -0.54560
C94         C  0.34006144  0.08269611  0.36031995     0.72610
Zr95       Zr  0.36482159  0.05897711  0.40929651     2.77540
O96         O  0.32084289  0.02194754  0.39940049    -0.98110
O97         O  0.35097876  0.07954520  0.44536761    -0.78930
Zr98       Zr  0.39595681  0.03430683  0.35306744     2.70070
O99         O  0.36082507  0.48982375  0.33955577    -0.80180
O100        O  0.41636149  0.02626270  0.31334492    -0.99260
Zr101      Zr  0.40379873  0.10054368  0.34947069     2.21500
Zr102      Zr  0.42635754  0.05779328  0.42743736     2.11130
O103        O  0.38625605  0.03510878  0.39960026    -2.47950
O104        O  0.37445812  0.05784394  0.36230934    -0.79970
O105        O  0.40409043  0.08136737  0.43772002    -0.72160
O106        O  0.42544824  0.07615138  0.34148854    -2.33120
O107        O  0.39270137  0.10161955  0.39669809    -2.29330
O108        O  0.43546776  0.05494964  0.38051563    -0.73920
H109        H  0.47131116  0.10930313  0.42651497     0.78070
H110        H  0.42887849  0.07467834  0.32250832     0.79160
H111        H  0.37561216  0.01725685  0.40349302     0.81390
H112        H  0.38343707  0.11107599  0.39939218     0.78990
H113        H  0.47192476  0.05902820  0.34029931     0.42030
H114        H  0.42139592  0.01365473  0.31873092     0.41000
H115        H  0.34671046  0.98765238  0.35157807     0.40680
H116        H  0.32303302  0.00643869  0.39694078     0.38610
H117        H  0.35760362  0.07687623  0.46263932     0.41740
H118        H  0.39604360  0.13547175  0.45150659     0.36530
H119        H  0.48517231  0.16341246  0.42383399     0.42640
H120        H  0.50985643  0.13892017  0.40051459     0.39060
H121        H  0.31217251  0.02049880  0.41683517     0.43980
H122        H  0.42295560  0.15291540  0.46805127     0.42700
H123        H  0.01748478  0.13734486  0.37022661     0.42840
H124        H  0.40182337  0.01601862  0.29925818     0.43190
O125        O  0.00551961  0.40807678  0.13004574    -0.75680
O126        O  0.02778379  0.43233076  0.17011498    -0.54580
C127        C  0.00777481  0.42152773  0.15292450     0.78050
O128        O  0.07640200  0.34045007  0.12727818    -0.60280
O129        O  0.09105048  0.35196283  0.08491968    -0.53310
C130        C  0.08543008  0.33712153  0.10460202     0.70070
O131        O  0.03814409  0.36653339  0.19138726    -0.74840
O132        O  0.04907714  0.40806265  0.20733928    -0.55400
C133        C  0.03664350  0.38334820  0.20868503     0.76070
O134        O  0.02218320  0.36634360  0.06297189    -0.59980
O135        O  0.05933790  0.37168637  0.04411801    -0.53100
C136        C  0.03443955  0.36326047  0.04302601     0.72660
Zr137      Zr  0.03259877  0.39600434  0.10344853     2.54710
O138        O  0.48903192  0.35851804  0.10452979    -0.80550
O139        O  0.01868074  0.41559049  0.07058694    -0.93960
Zr140      Zr  0.06308505  0.36834470  0.15136724     2.64680
O141        O  0.02280771  0.32634385  0.14322257    -0.98920
O142        O  0.08027975  0.35278948  0.18565757    -0.80980
O143        O  0.04063494  0.39142685  0.14910836    -0.84340
O144        O  0.05395846  0.37146321  0.10507028    -2.19050
O145        O  0.11591512  0.46312542  0.06127369    -0.67730
O146        O  0.11442298  0.42495720  0.04575794    -0.52290
C147        C  0.12015415  0.44890647  0.04330365     0.71040
O148        O  0.14025550  0.46388899  0.19407777    -0.60630
O149        O  0.10254608  0.46181164  0.20712776    -0.52610
C150        C  0.12727631  0.47096443  0.21024546     0.72850
O151        O  0.15490270  0.41676578  0.12493927    -0.72030
O152        O  0.13621590  0.39793158  0.08182200    -0.50710
C153        C  0.15429356  0.40542647  0.10100316     0.74230
O154        O  0.09406641  0.49313139  0.13627768    -0.67360
O155        O  0.07410118  0.47641068  0.17496882    -0.54560
C156        C  0.08444985  0.49465121  0.15938706     0.72610
Zr157      Zr  0.09996325  0.46172297  0.10590142     2.77540
O158        O  0.14306117  0.50070754  0.11051777    -0.98110
O159        O  0.08146711  0.48099455  0.07795953    -0.78930
Zr160      Zr  0.13105479  0.43311173  0.15265298     2.70070
O161        O  0.17512863  0.46935477  0.15016366    -0.80180
O162        O  0.14457034  0.41448556  0.18699568    -0.99260
Zr163      Zr  0.06961692  0.43407590  0.17073327     2.21500
Zr164      Zr  0.09374647  0.39498679  0.08251956     2.11130
O165        O  0.12198361  0.43766066  0.10673131    -2.47950
O166        O  0.11018742  0.45792436  0.15093774    -0.79970
O167        O  0.07202886  0.41963501  0.08169190    -0.72160
O168        O  0.09162075  0.41022611  0.17478665    -2.33120
O169        O  0.05982470  0.43854125  0.12530723    -2.29330
O170        O  0.10245832  0.39139191  0.12934608    -0.73920
H171        H  0.04354415  0.35393069  0.09599226     0.78070
H172        H  0.09501551  0.40922505  0.19379096     0.79160
H173        H  0.13817738  0.44644121  0.09785923     0.81390
H174        H  0.05105596  0.44845463  0.12478822     0.78990
H175        H  0.08212134  0.36366143  0.20300596     0.42030
H176        H  0.13505552  0.39546410  0.18107163     0.41000
H177        H  0.17278809  0.48430818  0.14708659     0.40680
H178        H  0.15471183  0.49507605  0.10186327     0.38610
H179        H  0.06880012  0.46627580  0.06475491     0.41740
H180        H  0.02183216  0.43228898  0.08050244     0.36530
H181        H  0.49132712  0.34714387  0.11641729     0.42640
H182        H  0.02430633  0.31814207  0.12534582     0.39060
H183        H  0.14193925  0.01218474  0.09784566     0.43980
H184        H  0.99946070  0.40444258  0.06873424     0.42700
H185        H  0.02419547  0.31574756  0.15685170     0.42840
H186        H  0.16302352  0.42027394  0.18373133     0.43190
O187        O  0.15080703  0.11983442  0.33014264    -0.75680
O188        O  0.18839963  0.12113770  0.31756643    -0.54580
C189        C  0.16982451  0.12638016  0.31452185     0.78050
O190        O  0.16747443  0.12541654  0.46315183    -0.60280
O191        O  0.13344652  0.08499940  0.46790917    -0.53310
C192        C  0.14714961  0.10991239  0.47509106     0.70070
O193        O  0.22965415  0.15516113  0.40439870    -0.74840
O194        O  0.23444792  0.14085786  0.36147256    -0.55400
C195        C  0.24219661  0.15796245  0.38258636     0.76070
O196        O  0.09239702  0.07861708  0.39021857    -0.59980
O197        O  0.09165201  0.05817041  0.42774030    -0.53100
C198        C  0.08172093  0.06701303  0.41130780     0.72660
Zr199      Zr  0.13277151  0.09328158  0.36716752     2.54710
O200        O  0.12857393  0.13178224  0.37792069    -0.80550
O201        O  0.09779078  0.07387074  0.33114740    -0.93960
Zr202      Zr  0.19085069  0.12311719  0.42384989     2.64680
O203        O  0.19388018  0.16572914  0.42879974    -0.98920
O204        O  0.22338787  0.13601385  0.46146955    -0.80980
O205        O  0.17842464  0.11952568  0.37680540    -0.84340
O206        O  0.14530060  0.09844258  0.41384441    -2.19050
O207        O  0.10715912  0.99689449  0.38020381    -0.67730
O208        O  0.09199573  0.01587813  0.41104793    -0.52290
C209        C  0.08869148  0.99729166  0.39294816     0.71040
O210        O  0.23357770  0.07009124  0.38575088    -0.60630
O211        O  0.23593216  0.09351326  0.35017643    -0.52610
C212        C  0.24461782  0.08240975  0.36505117     0.72850
O213        O  0.17424751  0.02973503  0.44865895    -0.72030
O214        O  0.13585705  0.02818335  0.45838760    -0.50710
C215        C  0.15307534  0.02121152  0.46165258     0.74230
O216        O  0.17338590  0.03254387  0.32695431    -0.67360
O217        O  0.18932401  0.06995814  0.30817400    -0.54560
C218        C  0.17945963  0.04503232  0.30595582     0.72610
Zr219      Zr  0.13917922  0.03018126  0.35514411     2.77540
O220        O  0.13053544  0.48768585  0.33369746    -0.98110
O221        O  0.10750051  0.02145857  0.31793870    -0.78930
Zr222      Zr  0.19582069  0.05946013  0.41308469     2.70070
O223        O  0.20352413  0.02279227  0.40765489    -0.80180
O224        O  0.23029726  0.08236639  0.44941115    -0.99260
Zr225      Zr  0.19723299  0.09750630  0.35151093     2.21500
Zr226      Zr  0.13147401  0.05617108  0.42738562     2.11130
O227        O  0.15051466  0.03376976  0.40253300    -2.47950
O228        O  0.18445039  0.05543439  0.36559001    -0.79970
O229        O  0.11944518  0.05127186  0.37972864    -0.72160
O230        O  0.20970781  0.10136891  0.39919938    -2.33120
O231        O  0.15131140  0.07165741  0.34109407    -2.29330
O232        O  0.17730659  0.08149139  0.43875094    -0.73920
H233        H  0.13655293  0.10664612  0.42313608     0.78070
H234        H  0.22841054  0.11147773  0.40239359     0.79160
H235        H  0.14486180  0.01668211  0.40804027     0.81390
H236        H  0.14702761  0.07023137  0.32174579     0.78990
H237        H  0.23901501  0.13778336  0.45254524     0.42030
H238        H  0.22174944  0.08597767  0.46509515     0.41000
H239        H  0.19153126  0.01116793  0.39192642     0.40680
H240        H  0.13030015  0.47783794  0.34899433     0.38610
H241        H  0.09235140  0.02048370  0.32726446     0.41740
H242        H  0.10597512  0.07184764  0.31429999     0.36530
H243        H  0.14665222  0.14622227  0.38263234     0.42640
H244        H  0.17566034  0.16190717  0.42975199     0.39060
H245        H  0.11232784  0.47862138  0.32589245     0.43980
H246        H  0.09402891  0.08796095  0.32823834     0.42700
H247        H  0.20196597  0.17363457  0.44749767     0.42840
H248        H  0.23392146  0.06884549  0.45499727     0.43190
O249        O  0.03863595  0.17917746  0.21124598    -0.75680
O250        O  0.04735810  0.14896251  0.22591619    -0.54580
C251        C  0.03469383  0.16144023  0.22704830     0.78050
O252        O  0.02711118  0.15525238  0.08815981    -0.60280
O253        O  0.06515270  0.17554797  0.06750977    -0.53310
C254        C  0.04003047  0.16186675  0.06689750     0.70070
O255        O  0.00752334  0.11369945  0.16171195    -0.74840
O256        O  0.02811226  0.09960661  0.18784310    -0.55400
C257        C  0.00789245  0.09568244  0.17375710     0.76070
O258        O  0.08005156  0.23714651  0.14730834    -0.59980
O259        O  0.09213593  0.23058419  0.10443550    -0.53100
C260        C  0.08692321  0.24377464  0.12293014     0.72660
Zr261      Zr  0.06988891  0.20114683  0.17598233     2.54710
O262        O  0.03657340  0.21361649  0.17746018    -0.80550
O263        O  0.09426308  0.23594775  0.21289467    -0.93960
Zr264      Zr  0.03455318  0.13584182  0.12521284     2.64680
O265        O  0.48808395  0.11908739  0.11609714    -0.98920
O266        O  0.02346513  0.09679868  0.09398713    -0.80980
O267        O  0.04525308  0.15488055  0.17110791    -0.84340
O268        O  0.05848436  0.18247330  0.12951317    -2.19050
O269        O  0.16176068  0.23334362  0.14657274    -0.67730
O270        O  0.14150457  0.23133548  0.10601501    -0.52290
C271        C  0.16128318  0.24228017  0.12364803     0.71040
O272        O  0.09159208  0.09818585  0.14790765    -0.60630
O273        O  0.07167072  0.09818801  0.18744784    -0.52610
C274        C  0.08108850  0.08829461  0.16958247     0.72850
O275        O  0.11443179  0.14340931  0.07933508    -0.72030
O276        O  0.11365260  0.17881112  0.06637416    -0.50710
C277        C  0.11714464  0.15902995  0.06187373     0.74230
O278        O  0.14281220  0.17722175  0.21302051    -0.67360
O279        O  0.10376730  0.14546677  0.22605408    -0.54560
C280        C  0.12896000  0.15886541  0.22819960     0.72610
Zr281      Zr  0.13495704  0.19836786  0.17525641     2.77540
O282        O  0.17868625  0.20438625  0.17552056    -0.98110
O283        O  0.14934717  0.23490370  0.21092386    -0.78930
Zr284      Zr  0.10014408  0.13427315  0.12404992     2.70070
O285        O  0.14232820  0.13674920  0.12626275    -0.80180
O286        O  0.08010506  0.09329668  0.09391488    -0.99260
Zr287      Zr  0.07086592  0.13916293  0.19104255     2.21500
Zr288      Zr  0.09789559  0.19345021  0.10677583     2.11130
O289        O  0.12516559  0.18022181  0.12825810    -2.47950
O290        O  0.11097059  0.15219073  0.17023529    -0.79970
O291        O  0.10897243  0.21267264  0.15378525    -0.72160
O292        O  0.06016353  0.12060025  0.14443796    -2.33120
O293        O  0.09552051  0.18616125  0.19755619    -2.29330
O294        O  0.07331160  0.14712736  0.10261760    -0.73920
H295        H  0.04905277  0.18992762  0.12172322     0.78070
H296        H  0.05026725  0.10177703  0.14297600     0.79160
H297        H  0.14102118  0.18561186  0.11886543     0.81390
H298        H  0.09907265  0.19240393  0.21686953     0.78990
H299        H  0.02219082  0.08337216  0.10536388     0.42030
H300        H  0.07012966  0.09568440  0.07931958     0.41000
H301        H  0.15056705  0.14650489  0.14438734     0.40680
H302        H  0.18219436  0.20285637  0.15594274     0.38610
H303        H  0.14450728  0.24680649  0.20316272     0.41740
H304        H  0.08341839  0.23027807  0.22884153     0.36530
H305        H  0.02220614  0.20002737  0.16470825     0.42640
H306        H  0.48606155  0.13470285  0.11741355     0.39060
H307        H  0.19039366  0.22304831  0.18224454     0.43980
H308        H  0.09281888  0.25090133  0.20770499     0.42700
H309        H  0.48432174  0.11215221  0.09644102     0.42840
H310        H  0.09469812  0.09293021  0.08464511     0.43190
O311        O  0.32425255  0.46538855  0.18917684    -0.75680
O312        O  0.36175021  0.46591654  0.20154992    -0.54580
C313        C  0.34493466  0.47348922  0.20502123     0.78050
O314        O  0.27823566  0.33669109  0.11274111    -0.60280
O315        O  0.26067205  0.35109562  0.08293604    -0.53310
C316        C  0.25857180  0.33395235  0.09868848     0.70070
O317        O  0.32742286  0.37022719  0.19044742    -0.74840
O318        O  0.36111100  0.41118112  0.20454137    -0.55400
C319        C  0.34646797  0.38675543  0.20735811     0.76070
O320        O  0.26393161  0.42147357  0.11841482    -0.59980
O321        O  0.26058791  0.39789900  0.07734315    -0.53100
C322        C  0.25175390  0.40817535  0.09550614     0.72660
Zr323      Zr  0.30402330  0.43642889  0.14627045     2.54710
O324        O  0.26978301  0.42075426  0.17846995    -0.80550
O325        O  0.30176072  0.47551773  0.14056002    -0.93960
Zr326      Zr  0.30462619  0.37101184  0.14924934     2.64680
O327        O  0.26823805  0.36560223  0.17625638    -0.98920
O328        O  0.29161281  0.32750489  0.16130197    -0.80980
O329        O  0.32009628  0.41403980  0.17062262    -0.84340
O330        O  0.28777652  0.39296233  0.12571753    -2.19050
O331        O  0.34382780  0.46199962  0.05546990    -0.67730
O332        O  0.30853021  0.42219633  0.04027399    -0.52290
C333        C  0.32573760  0.44640120  0.03746697     0.71040
O334        O  0.40002589  0.40541798  0.13063063    -0.60630
O335        O  0.40447898  0.43285631  0.16880673    -0.52610
C336        C  0.41213042  0.41994861  0.15295631     0.72850
O337        O  0.33092518  0.35610374  0.07065889    -0.72030
O338        O  0.30979664  0.36856849  0.04307386    -0.50710
C339        C  0.32253973  0.35658869  0.04679407     0.74230
O340        O  0.40214072  0.49173926  0.12501597    -0.67360
O341        O  0.40561704  0.47848477  0.16600582    -0.54560
C342        C  0.41441679  0.49481930  0.14799015     0.72610
Zr343      Zr  0.36236061  0.46023950  0.09808531     2.77540
O344        O  0.39624208  0.47201720  0.06550271    -0.98110
O345        O  0.36427403  0.50224854  0.10039098    -0.78930
Zr346      Zr  0.36257533  0.39474470  0.10021442     2.70070
O347        O  0.39299789  0.41504241  0.06520607    -0.80180
O348        O  0.37800302  0.36368440  0.09317264    -0.99260
Zr349      Zr  0.36600087  0.43653906  0.16643548     2.21500
Zr350      Zr  0.29978258  0.39416216  0.07870359     2.11130
O351        O  0.34631929  0.41713035  0.07622651    -2.47950
O352        O  0.37924435  0.43805679  0.12066348    -0.79970
O353        O  0.31640135  0.43794346  0.10018045    -0.72160
O354        O  0.35046268  0.39269720  0.14615291    -2.33120
O355        O  0.34974545  0.45961313  0.14347042    -2.29330
O356        O  0.31680570  0.37203613  0.10317737    -0.73920
H357        H  0.26906272  0.38329600  0.12632248     0.78070
H358        H  0.35808642  0.38411257  0.15518269     0.79160
H359        H  0.35073757  0.41744460  0.05731254     0.81390
H360        H  0.35720211  0.47746382  0.15167865     0.78990
H361        H  0.30417734  0.32317603  0.15259990     0.42030
H362        H  0.36385348  0.34719388  0.09898350     0.41000
H363        H  0.40931761  0.42844407  0.07563775     0.40680
H364        H  0.38829757  0.45844100  0.04959791     0.38610
H365        H  0.34582237  0.49782981  0.10021098     0.41740
H366        H  0.31971803  0.49018815  0.14531492     0.36530
H367        H  0.26574222  0.43500038  0.18191808     0.42640
H368        H  0.25288146  0.35832146  0.16311487     0.39060
H369        H  0.39810975  0.48796091  0.05860552     0.43980
H370        H  0.29156203  0.47690444  0.15583337     0.42700
H371        H  0.26469934  0.35116380  0.18725876     0.42840
H372        H  0.37782874  0.36015276  0.07302422     0.43190
C373        C  0.44004922  0.01928619  0.15418585    -0.06510
C374        C  0.45108096  0.02719666  0.18133131    -0.17640
C375        C  0.47346442  0.05166655  0.18855505     0.10690
C376        C  0.48465289  0.06919724  0.16864597    -0.06430
C377        C  0.47421009  0.06086424  0.14153217    -0.17670
C378        C  0.45314456  0.03599881  0.13384891     0.10720
S379        S  0.48600006  0.05990131  0.22355279    -0.32630
S380        S  0.44560859  0.02669826  0.09746647    -0.32640
H381        H  0.44240816  0.50169952  0.09871178     0.28730
H382        H  0.98989523  0.08520186  0.22408508     0.28720
H383        H  0.44191119  0.01461368  0.19723878     0.19320
H384        H  0.48322027  0.07355818  0.12574522     0.19320
C385        C  0.18539068  0.26672781  0.11715222    -0.06510
C386        C  0.18925338  0.27328099  0.08989662    -0.17640
C387        C  0.21248454  0.29503487  0.08275390     0.10690
C388        C  0.23278979  0.31064011  0.10311479    -0.06430
C389        C  0.22860659  0.30423328  0.13016547    -0.17670
C390        C  0.20529727  0.28353610  0.13755047     0.10720
S391        S  0.21535595  0.30099193  0.04730111    -0.32630
S392        S  0.20205616  0.28125161  0.17384256    -0.32640
H393        H  0.17697007  0.27823069  0.17288779     0.28730
H394        H  0.24220607  0.31002162  0.04731156     0.28720
H395        H  0.17433407  0.26106904  0.07382575     0.19320
H396        H  0.24352454  0.31613377  0.14626148     0.19320
C397        C  0.14268106  0.15145379  0.24869287    -0.06510
C398        C  0.16469704  0.17048719  0.26548483    -0.17640
C399        C  0.17618715  0.16338535  0.28612015     0.10690
C400        C  0.16631634  0.13662561  0.28928716    -0.06430
C401        C  0.14566405  0.11797685  0.27148288    -0.17670
C402        C  0.13369910  0.12491418  0.25209252     0.10720
S403        S  0.20227753  0.18922690  0.30848550    -0.32630
S404        S  0.10708633  0.09827804  0.23207814    -0.32640
H405        H  0.11880445  0.10922968  0.20829188     0.28730
H406        H  0.21058109  0.17362819  0.31996875     0.28720
H407        H  0.17222345  0.19097964  0.26344487     0.19320
H408        H  0.13751894  0.09741441  0.27391486     0.19320
C409        C  0.13845692  0.12279732  0.49686537    -0.06510
C410        C  0.15487803  0.14988992  0.00525510    -0.17640
C411        C  0.14744231  0.16375289  0.02427631     0.10690
C412        C  0.12267284  0.15073083  0.03476582    -0.06430
C413        C  0.10574169  0.12428586  0.02523820    -0.17670
C414        C  0.11356476  0.11000179  0.00765083     0.10720
S415        S  0.17112759  0.19720955  0.03613745    -0.32630
S416        S  0.09177614  0.07518299  0.50287409    -0.32640
H417        H  0.08764564  0.07473536  0.47476105     0.28730
H418        H  0.15287124  0.20543314  0.04052228     0.28720
H419        H  0.17408098  0.16044150  0.49752104     0.19320
H420        H  0.08696340  0.11385583  0.03398316     0.19320
C421        C  0.13325371  0.46336952  0.01932740    -0.06510
C422        C  0.15352125  0.48952411  0.02588095    -0.17640
C423        C  0.16072353  0.00844065  0.00749590     0.10690
C424        C  0.14786020  0.00143223  0.48116563    -0.06430
C425        C  0.12879082  0.47498469  0.47374340    -0.17670
C426        C  0.12156088  0.45598274  0.49234626     0.10720
S427        S  0.18405777  0.04178854  0.02040527    -0.32630
S428        S  0.09581599  0.42323877  0.48133915    -0.32640
H429        H  0.10715574  0.41124461  0.99505400     0.28730
H430        H  0.19503233  0.04985603  0.99545694     0.28720
H431        H  0.16247185  0.99587691  0.04657682     0.19320
H432        H  0.11891347  0.46920389  0.45350522     0.19320
C433        C  0.14198172  0.49127435  0.23386156    -0.06510
C434        C  0.16243153  0.49091414  0.24818259    -0.17640
C435        C  0.17646397  0.50933304  0.27087515     0.10690
C436        C  0.17089220  0.02942625  0.27883270    -0.06430
C437        C  0.15148584  0.03059659  0.26377709    -0.17670
C438        C  0.13654333  0.01148349  0.24220300     0.10720
S439        S  0.20079924  0.50586597  0.28924205    -0.32630
S440        S  0.11037943  0.01388194  0.22695903    -0.32640
H441        H  0.09111746  0.99146818  0.23774334     0.28730
H442        H  0.21570035  0.53219198  0.30033089     0.28720
H443        H  0.16695703  0.47566227  0.24224724     0.19320
H444        H  0.14645098  0.04539286  0.27029757     0.19320
C445        C  0.08507105  0.01910275  0.16828239    -0.06510
C446        C  0.06213463  0.01834888  0.17675224    -0.17640
C447        C  0.06010910  0.04089662  0.17870605     0.10690
C448        C  0.08199150  0.06467966  0.17367725    -0.06430
C449        C  0.10573875  0.06568203  0.16861892    -0.17670
C450        C  0.10755148  0.04326113  0.16596464     0.10720
S451        S  0.02873975  0.03754161  0.18479397    -0.32630
S452        S  0.13898498  0.04681075  0.15923744    -0.32640
H453        H  0.13502757  0.02469748  0.17138951     0.28730
H454        H  0.03004748  0.05408373  0.16540494     0.28720
H455        H  0.04514094  0.49987434  0.17978719     0.19320
H456        H  0.12289743  0.08410889  0.16559527     0.19320
C457        C  0.08961609  0.26870449  0.11572052    -0.06510
C458        C  0.07691023  0.26902331  0.09147874    -0.17640
C459        C  0.07677090  0.29172257  0.08550834     0.10690
C460        C  0.09043509  0.31495144  0.10364525    -0.06430
C461        C  0.10471686  0.31486666  0.12665350    -0.17670
C462        C  0.10465059  0.29233927  0.13273856     0.10720
S463        S  0.05746081  0.28914304  0.05563267    -0.32630
S464        S  0.12400845  0.29506069  0.16273933    -0.32640
H465        H  0.13081441  0.27666394  0.15186349     0.28730
H466        H  0.04952780  0.30657097  0.06662085     0.28720
H467        H  0.06577950  0.25110103  0.07790597     0.19320
H468        H  0.11493404  0.33233801  0.14103811     0.19320
C469        C  0.17632529  0.40085797  0.09600270    -0.06510
C470        C  0.19050287  0.40883078  0.07252989    -0.17640
C471        C  0.21472669  0.41003045  0.07041504     0.10690
C472        C  0.22469533  0.40281538  0.09216096    -0.06430
C473        C  0.20916365  0.39240866  0.11413436    -0.17670
C474        C  0.18518507  0.39121966  0.11626008     0.10720
S475        S  0.23221461  0.42223150  0.04037883    -0.32630
S476        S  0.16631874  0.37770193  0.14528760    -0.32640
H477        H  0.18231534  0.36923692  0.15650708     0.28730
H478        H  0.25725866  0.43195926  0.05246381     0.28720
H479        H  0.18355426  0.41579193  0.05665157     0.19320
H480        H  0.21647744  0.38615306  0.13039316     0.19320
C481        C  0.43759538  0.42319113  0.15953391    -0.06510
C482        C  0.45897129  0.44380408  0.14896655    -0.17640
C483        C  0.48288479  0.44476144  0.14820340     0.10690
C484        C  0.48561289  0.42497970  0.15901510    -0.06430
C485        C  0.46442387  0.40491494  0.17061978    -0.17670
C486        C  0.44042026  0.40388761  0.17109834     0.10720
S487        S  0.00768501  0.46970293  0.12990226    -0.32630
S488        S  0.41368093  0.37651592  0.18467871    -0.32640
H489        H  0.39962800  0.38923866  0.19176428     0.28730
H490        H  0.02888477  0.46885883  0.14120443     0.28720
H491        H  0.45647059  0.45821943  0.13940827     0.19320
H492        H  0.46604635  0.38904775  0.17775937     0.19320
C493        C  0.48254306  0.12343862  0.49991767    -0.06510
C494        C  0.49753063  0.15114259  0.00366512    -0.17640
C495        C  0.01772935  0.16472478  0.02420269     0.10690
C496        C  0.02397632  0.15047849  0.04099710    -0.06430
C497        C  0.00983669  0.12304386  0.03677018    -0.17670
C498        C  0.48926465  0.10941001  0.01684679     0.10720
S499        S  0.03394224  0.19998078  0.02829889    -0.32630
S500        S  0.47158059  0.07431899  0.51571266    -0.32640
H501        H  0.48029807  0.07060942  0.49002431     0.28730
H502        H  0.04257787  0.20409164  0.05597265     0.28720
H503        H  0.49331615  0.16259850  0.49079933     0.19320
H504        H  0.01418386  0.11199088  0.05007163     0.19320
C505        C  0.47422536  0.13218517  0.28626682    -0.06510
C506        C  0.47940816  0.15484690  0.27437781    -0.17640
C507        C  0.49808518  0.16469478  0.25419125     0.10690
C508        C  0.01344911  0.15289406  0.24719356    -0.06430
C509        C  0.00754403  0.13018630  0.25916102    -0.17670
C510        C  0.48754086  0.11907807  0.27667318     0.10720
S511        S  0.50162930  0.19243861  0.23877466    -0.32630
S512        S  0.48016881  0.08759169  0.28596755    -0.32640
H513        H  0.45336939  0.07793725  0.28672134     0.28730
H514        H  0.99603441  0.17931143  0.21205804     0.28720
H515        H  0.46934306  0.16515868  0.28110698     0.19320
H516        H  0.01820311  0.12008866  0.25439646     0.19320
C517        C  0.35385083  0.99749123  0.47484877    -0.06510
C518        C  0.33356520  0.99658885  0.99029113    -0.17640
C519        C  0.32140357  0.47806847  0.00922305     0.10690
C520        C  0.32792696  0.45829669  0.01147269    -0.06430
C521        C  0.34639329  0.45780487  0.99410784    -0.17670
C522        C  0.35980973  0.47730655  0.47674222     0.10720
S523        S  0.29891678  0.98197858  0.03093466    -0.32630
S524        S  0.38522175  0.47579327  0.45846836    -0.32160
H525        H  0.40503663  0.49646093  0.47607500     0.28730
H526        H  0.30004802  0.46839230  0.05228842     0.28720
H527        H  0.32842268  0.01159854  0.98910833     0.19320
H528        H  0.35253542  0.44362986  0.99624139     0.19320
C529        C  0.35017443  0.49364738  0.22839352    -0.06510
C530        C  0.37349216  0.01781950  0.23011977    -0.17640
C531        C  0.37948543  0.03745726  0.25192161     0.10690
C532        C  0.36237982  0.03266159  0.27340358    -0.06430
C533        C  0.33854599  0.50874013  0.27092478    -0.17670
C534        C  0.33224993  0.48937358  0.24872392     0.10720
S535        S  0.41003100  0.06742205  0.25198098    -0.32630
S536        S  0.30235142  0.45834335  0.24775884    -0.32640
H537        H  0.29253942  0.46454912  0.27150650     0.28730
H538        H  0.39901777  0.08337789  0.25763955     0.28720
H539        H  0.38717616  0.02144881  0.21429075     0.19320
H540        H  0.32538993  0.50465082  0.28732068     0.19320
C541        C  0.00963389  0.06557129  0.41910170    -0.06510
C542        C  0.01152167  0.04797191  0.39947045    -0.17640
C543        C  0.03434535  0.04674874  0.39784999     0.10690
C544        C  0.05587364  0.06346891  0.41629401    -0.06430
C545        C  0.05371028  0.08035624  0.43667856    -0.17670
C546        C  0.03084039  0.08168998  0.43829579     0.10720
S547        S  0.03566403  0.02520012  0.37026054    -0.32630
S548        S  0.03126455  0.10594122  0.46375936    -0.32640
H549        H  0.50721090  0.10339987  0.45626830     0.28730
H550        H  0.05399803  0.02107148  0.38377069     0.28720
H551        H  0.99559148  0.03615054  0.38421322     0.19320
H552        H  0.07056676  0.09406094  0.45007110     0.19320
C553        C  0.31655171  0.08384996  0.35358396    -0.06510
C554        C  0.31684971  0.10730477  0.36131264    -0.17640
C555        C  0.29356056  0.10762998  0.36420780     0.10690
C556        C  0.26949732  0.08411423  0.35851118    -0.06430
C557        C  0.26929952  0.06107919  0.34879782    -0.17670
C558        C  0.29257979  0.06076477  0.34608191     0.10720
S559        S  0.29594300  0.13809613  0.37760231    -0.32630
S560        S  0.29057981  0.03013006  0.33421401    -0.32640
H561        H  0.31561839  0.04116194  0.32415228     0.28730
H562        H  0.27444519  0.12713545  0.39387860     0.28720
H563        H  0.33522430  0.12498546  0.36750113     0.19320
H564        H  0.25087818  0.04305503  0.34415639     0.19320
C565        C  0.47288570  0.32990568  0.47949534    -0.06510
C566        C  0.48729202  0.31719225  0.48272303    -0.17640
C567        C  0.00883469  0.32770644  0.00225836     0.10690
C568        C  0.01746417  0.35251000  0.01717754    -0.06430
C569        C  0.00361684  0.36539399  0.01249747    -0.17670
C570        C  0.48094046  0.35380629  0.49559606     0.10720
S571        S  0.02381009  0.30841919  0.00735394    -0.32630
S572        S  0.46337790  0.37118375  0.49469262    -0.32640
H573        H  0.43887012  0.34848144  0.48908625     0.28730
H574        H  0.04821221  0.32930468  0.01756259     0.28720
H575        H  0.48207744  0.29934737  0.46967037     0.19320
H576        H  0.00948923  0.38419053  0.02391196     0.19320
C577        C  0.48300448  0.35365557  0.27266067    -0.06510
C578        C  0.49019826  0.37794851  0.26358757    -0.17640
C579        C  0.50758683  0.38800207  0.24344130     0.10690
C580        C  0.01872211  0.37366161  0.23113324    -0.06430
C581        C  0.01170451  0.34925065  0.23994599    -0.17670
C582        C  0.49431867  0.33926197  0.26073785     0.10720
S583        S  0.51258638  0.41836714  0.23322460    -0.32630
S584        S  0.48743364  0.30817536  0.27066068    -0.32640
H585        H  0.49788340  0.31875425  0.29768502     0.28730
H586        H  0.00354786  0.40637188  0.20648706     0.28720
H587        H  0.48211803  0.38967056  0.27212094     0.19320
H588        H  0.02003510  0.33796159  0.23082268     0.19320
C589        C  0.41320754  0.47580774  0.38991015    -0.06510
C590        C  0.43783058  0.47855549  0.38675171    -0.17640
C591        C  0.44026303  0.45880786  0.37188980     0.10690
C592        C  0.41770779  0.43628830  0.36002986    -0.06430
C593        C  0.39326924  0.43415010  0.36222865    -0.17670
C594        C  0.39064128  0.45302233  0.37818043     0.10720
S595        S  0.47188733  0.46168983  0.36925090    -0.32630
S596        S  0.35794866  0.44721085  0.38218319    -0.32640
H597        H  0.36421010  0.46773853  0.40288752     0.28730
H598        H  0.48492280  0.48300590  0.38964798     0.28720
H599        H  0.45511001  0.49668193  0.39458327     0.19320
H600        H  0.37583785  0.41617484  0.35418522     0.19320
C601        C  0.41403492  0.18351940  0.38443634    -0.06510
C602        C  0.39894160  0.18538375  0.36349548    -0.17640
C603        C  0.39487398  0.20663181  0.36418024     0.10690
C604        C  0.40629082  0.22678770  0.38612515    -0.06430
C605        C  0.42052020  0.22473372  0.40749484    -0.17670
C606        C  0.42480336  0.20361741  0.40698948     0.10720
S607        S  0.37480249  0.20688570  0.33652482    -0.32630
S608        S  0.44575840  0.20445517  0.43458961    -0.32640
H609        H  0.44546852  0.22421102  0.45249920     0.28730
H610        H  0.36621408  0.22209303  0.35179983     0.28720
H611        H  0.38990497  0.17003794  0.34655368     0.19320
H612        H  0.42979333  0.24071240  0.42378943     0.19320
C613        C  0.06249123  0.47559783  0.38450227    -0.06510
C614        C  0.05808859  0.46495530  0.35680511    -0.17640
C615        C  0.03472725  0.44294979  0.34714192     0.10690
C616        C  0.01483997  0.43207109  0.36518004    -0.06430
C617        C  0.01813115  0.44399111  0.39207381    -0.17670
C618        C  0.04193243  0.46545502  0.40216860     0.10720
S619        S  0.03187107  0.42937301  0.31205119    -0.32630
S620        S  0.04512008  0.47767591  0.43782746    -0.32640
H621        H  0.06967323  0.98010982  0.44281408     0.28730
H622        H  0.01676965  0.40308258  0.31685854     0.28720
H623        H  0.07325487  0.47337297  0.34261998     0.19320
H624        H  0.00240831  0.43579776  0.40564090     0.19320
C625        C  0.31607755  0.22913747  0.38729987    -0.06510
C626        C  0.30745110  0.21220985  0.36284238    -0.17640
C627        C  0.28338963  0.18926153  0.36016515     0.10690
C628        C  0.26770323  0.18235701  0.38298717    -0.06430
C629        C  0.27718012  0.19901882  0.40789273    -0.17670
C630        C  0.30082864  0.22243158  0.41011504     0.10720
S631        S  0.27413605  0.17062378  0.32679903    -0.32630
S632        S  0.30955579  0.24347684  0.44198657    -0.32640
H633        H  0.31853436  0.26673506  0.42974148     0.28730
H634        H  0.25052897  0.17065499  0.32434989     0.28720
H635        H  0.31921940  0.21746787  0.34520026     0.19320
H636        H  0.26586566  0.19426824  0.42584814     0.19320
C637        C  0.36171797  0.33383172  0.48568265    -0.06510
C638        C  0.33695197  0.31465691  0.49280057    -0.17640
C639        C  0.32277230  0.32108246  0.01215324     0.10690
C640        C  0.33278592  0.34748427  0.02329988    -0.06430
C641        C  0.35730011  0.36617643  0.01615350    -0.17670
C642        C  0.37224389  0.35961680  0.49908177     0.10720
S643        S  0.29199035  0.29500092  0.02115266    -0.32630
S644        S  0.40492566  0.38574352  0.49528561    -0.32640
H645        H  0.41459127  0.36968039  0.48499448     0.28730
H646        H  0.28240011  0.31084317  0.03263614     0.28720
H647        H  0.32821634  0.29494091  0.48261002     0.19320
H648        H  0.36547099  0.38626014  0.02492251     0.19320
C649        C  0.35283687  0.37616719  0.23044876    -0.06510
C650        C  0.35630966  0.35453811  0.22444426    -0.17640
C651        C  0.36348432  0.34412773  0.24506868     0.10690
C652        C  0.36656814  0.35507699  0.27254674    -0.06430
C653        C  0.36227026  0.37613141  0.27871213    -0.17670
C654        C  0.35566383  0.38688784  0.25797716     0.10720
S655        S  0.37011866  0.31817854  0.23469824    -0.32630
S656        S  0.35004826  0.41351923  0.26779433    -0.32640
H657        H  0.37102854  0.43129087  0.25373737     0.28730
H658        H  0.36493297  0.30707357  0.25953143     0.28720
H659        H  0.35423535  0.34620022  0.20333425     0.19320
H660        H  0.36488944  0.38478573  0.29977492     0.19320
O661        O  0.36245658  0.32842374  0.80764632    -0.75680
O662        O  0.40244153  0.36239978  0.79999386    -0.54580
C663        C  0.37780496  0.34786614  0.79462772     0.78050
O664        O  0.37816039  0.34850410  0.94466904    -0.60280
O665        O  0.37817557  0.31155060  0.95340628    -0.53310
C666        C  0.37312611  0.33031869  0.95961692     0.70070
O667        O  0.40666823  0.40012345  0.88047488    -0.74840
O668        O  0.42732192  0.40434632  0.84071158    -0.55400
C669        C  0.41707732  0.41186688  0.85964150     0.76070
O670        O  0.34023161  0.26590741  0.86529242    -0.59980
O671        O  0.35681112  0.26389075  0.90672565    -0.53100
C672        C  0.33933589  0.25468500  0.88668866     0.72660
Zr673      Zr  0.36665878  0.30575602  0.84526391     2.54710
O674        O  0.32517169  0.30411926  0.85082315    -0.80550
O675        O  0.34829124  0.27100957  0.80723545    -0.93960
Zr676      Zr  0.39858501  0.36381511  0.90363923     2.64680
O677        O  0.35847761  0.36566534  0.90329027    -0.98920
O678        O  0.42029150  0.40255916  0.93682061    -0.80980
O679        O  0.38982972  0.35126486  0.85614410    -0.84340
O680        O  0.37392463  0.31814315  0.89358576    -2.19050
O681        O  0.41690995  0.26247012  0.86237760    -0.67730
O682        O  0.40276279  0.26289691  0.90564141    -0.52290
C683        C  0.40830588  0.25221806  0.88463730     0.71040
O684        O  0.49163767  0.38723854  0.86736314    -0.60630
O685        O  0.47250475  0.40494471  0.84463770    -0.52610
C686        C  0.49182640  0.40676130  0.85829162     0.72850
O687        O  0.47173382  0.34041908  0.93606405    -0.72030
O688        O  0.43247532  0.31112373  0.95105262    -0.50710
C689        C  0.45771684  0.32556064  0.95357536     0.74230
O690        O  0.45952110  0.32553974  0.80706866    -0.67360
O691        O  0.45415047  0.35987600  0.80046859    -0.54560
C692        C  0.46416586  0.34538878  0.79459799     0.72610
Zr693      Zr  0.43158790  0.30332586  0.84352886     2.77540
O694        O  0.46908350  0.29701648  0.84529789    -0.98110
O695        O  0.41055422  0.27033183  0.80424216    -0.78930
Zr696      Zr  0.46395443  0.36229613  0.90180964     2.70070
O697        O  0.50953380  0.37669713  0.91304593    -0.80180
O698        O  0.47592348  0.40048226  0.93457866    -0.99260
Zr699      Zr  0.43082345  0.36573897  0.83727222     2.21500
Zr700      Zr  0.39979391  0.30237319  0.91328525     2.11130
O701        O  0.44010934  0.31616491  0.89163630    -2.47950
O702        O  0.45651336  0.34899798  0.85420167    -0.79970
O703        O  0.39185758  0.28977734  0.86459636    -0.72160
O704        O  0.43958191  0.38003287  0.88519931    -2.33120
O705        O  0.40671510  0.31986729  0.82444265    -2.29330
O706        O  0.42420104  0.34847942  0.92348940    -0.73920
H707        H  0.35736850  0.31139407  0.90184755     0.78070
H708        H  0.44935828  0.39885016  0.88892899     0.79160
H709        H  0.44917629  0.30790110  0.89836125     0.81390
H710        H  0.40421013  0.31585022  0.80474053     0.78990
H711        H  0.40872960  0.41012362  0.93720466     0.42030
H712        H  0.46094403  0.39532798  0.94620015     0.41000
H713        H  0.01323162  0.36492987  0.90070261     0.40680
H714        H  0.46984111  0.29209986  0.86386710     0.38610
H715        H  0.41533695  0.28020239  0.78805047     0.41740
H716        H  0.36242047  0.27560268  0.79450254     0.36530
H717        H  0.32993048  0.32260821  0.85534888     0.42640
H718        H  0.34461337  0.34794134  0.90656552     0.39060
H719        H  0.46374000  0.28084668  0.83285329     0.43980
H720        H  0.33526834  0.27367383  0.79752603     0.42700
H721        H  0.36013444  0.37693256  0.92025693     0.42840
H722        H  0.49004275  0.40194089  0.94680633     0.43190
O723        O  0.42353044  0.15510001  0.90576482    -0.75680
O724        O  0.41015525  0.14443362  0.86049367    -0.54580
C725        C  0.41638493  0.15965729  0.88324898     0.78050
O726        O  0.48993080  0.08377835  0.89516283    -0.60280
O727        O  0.46794972  0.05919346  0.92927163    -0.53310
C728        C  0.48779924  0.07000752  0.91469533     0.70070
O729        O  0.47167555  0.11876361  0.82947150    -0.74840
O730        O  0.43660334  0.12131047  0.81445886    -0.55400
C731        C  0.45971037  0.12425144  0.81176569     0.76070
O732        O  0.45634962  0.12598976  0.96532699    -0.59980
O733        O  0.45175297  0.08606856  0.96900229    -0.53100
C734        C  0.46170754  0.11067003  0.97713125     0.72660
Zr735      Zr  0.43194916  0.12375840  0.92446349     2.54710
O736        O  0.47150416  0.16629038  0.93202947    -0.80550
O737        O  0.41029703  0.13456642  0.96101440    -0.93960
Zr738      Zr  0.46425105  0.09767677  0.87047361     2.64680
O739        O  0.50454470  0.13914861  0.88141458    -0.98920
O740        O  0.48516562  0.07786660  0.84325186    -0.80980
O741        O  0.44337273  0.12268228  0.87813651    -0.84340
O742        O  0.45469086  0.10087816  0.91624304    -2.19050
O743        O  0.35562328  0.02726162  0.94340530    -0.67730
O744        O  0.39339930  0.02892663  0.95666642    -0.52290
C745        C  0.36855681  0.01941996  0.95734652     0.71040
O746        O  0.36485024  0.03425061  0.82137921    -0.60630
O747        O  0.38548622  0.07299017  0.80497628    -0.52610
C748        C  0.37120925  0.04784721  0.80123167     0.72850
O749        O  0.40248059  0.00307139  0.87243473    -0.72030
O750        O  0.42254343  0.01564126  0.91544225    -0.50710
C751        C  0.41241251  0.99961407  0.89357782     0.74230
O752        O  0.33857539  0.06989049  0.88070314    -0.67360
O753        O  0.36028990  0.09496493  0.84647503    -0.54560
C754        C  0.34006145  0.08269612  0.86031992     0.72610
Zr755      Zr  0.36482160  0.05897713  0.90929650     2.77540
O756        O  0.32084289  0.02194757  0.89940049    -0.98110
O757        O  0.35097878  0.07954523  0.94536760    -0.78930
Zr758      Zr  0.39595682  0.03430687  0.85306742     2.70070
O759        O  0.36082507  0.48982377  0.83955576    -0.80180
O760        O  0.41636151  0.02626276  0.81334488    -0.99260
Zr761      Zr  0.40379876  0.10054372  0.84947070     2.21500
Zr762      Zr  0.42635754  0.05779328  0.92743735     2.11130
O763        O  0.38625605  0.03510880  0.89960024    -2.47950
O764        O  0.37445814  0.05784398  0.86230933    -0.79970
O765        O  0.40409044  0.08136738  0.93772002    -0.72160
O766        O  0.42544826  0.07615142  0.84148852    -2.33120
O767        O  0.39270138  0.10161958  0.89669809    -2.29330
O768        O  0.43546775  0.05494966  0.88051562    -0.73920
H769        H  0.47131116  0.10930314  0.92651498     0.78070
H770        H  0.42887853  0.07467839  0.82250829     0.79160
H771        H  0.37561216  0.01725687  0.90349299     0.81390
H772        H  0.38343708  0.11107601  0.89939218     0.78990
H773        H  0.47192459  0.05902806  0.84029937     0.42030
H774        H  0.42139590  0.01365476  0.81873086     0.41000
H775        H  0.34671047  0.98765241  0.85157797     0.40680
H776        H  0.32303301  0.00643873  0.89694076     0.38610
H777        H  0.35760361  0.07687624  0.96263931     0.41740
H778        H  0.39604359  0.13547174  0.95150660     0.36530
H779        H  0.48517233  0.16341244  0.92383402     0.42640
H780        H  0.50985644  0.13892022  0.90051457     0.39060
H781        H  0.31217252  0.02049884  0.91683517     0.43980
H782        H  0.42295560  0.15291545  0.96805124     0.42700
H783        H  0.01748480  0.13734488  0.87022661     0.42840
H784        H  0.40182339  0.01601872  0.79925813     0.43190
O785        O  0.00551965  0.40807688  0.63004573    -0.75680
O786        O  0.02778381  0.43233081  0.67011499    -0.54580
C787        C  0.00777485  0.42152781  0.65292449     0.78050
O788        O  0.07640195  0.34045006  0.62727816    -0.60280
O789        O  0.09105048  0.35196286  0.58491968    -0.53310
C790        C  0.08543006  0.33712153  0.60460201     0.70070
O791        O  0.03814406  0.36653337  0.69138726    -0.74840
O792        O  0.04907712  0.40806263  0.70733930    -0.55400
C793        C  0.03664348  0.38334818  0.70868504     0.76070
O794        O  0.02218323  0.36634373  0.56297186    -0.59980
O795        O  0.05933791  0.37168640  0.54411801    -0.53100
C796        C  0.03443956  0.36326054  0.54302599     0.72660
Zr797      Zr  0.03259880  0.39600442  0.60344853     2.54710
O798        O  0.48903192  0.35851810  0.60452978    -0.80550
O799        O  0.01868081  0.41559061  0.57058694    -0.93960
Zr800      Zr  0.06308499  0.36834468  0.65136721     2.64680
O801        O  0.02280760  0.32634388  0.64322242    -0.98920
O802        O  0.08027956  0.35278932  0.68565750    -0.80980
O803        O  0.04063492  0.39142687  0.64910835    -0.84340
O804        O  0.05395844  0.37146324  0.60507026    -2.19050
O805        O  0.11591518  0.46312548  0.56127378    -0.67730
O806        O  0.11442301  0.42495725  0.54575797    -0.52290
C807        C  0.12015420  0.44890654  0.54330371     0.71040
O808        O  0.14025548  0.46388895  0.69407781    -0.60630
O809        O  0.10254608  0.46181162  0.70712780    -0.52610
C810        C  0.12727631  0.47096439  0.71024550     0.72850
O811        O  0.15490268  0.41676574  0.62493930    -0.72030
O812        O  0.13621590  0.39793158  0.58182201    -0.50710
C813        C  0.15429354  0.40542645  0.60100318     0.74230
O814        O  0.09406645  0.49313142  0.63627776    -0.67360
O815        O  0.07410119  0.47641069  0.67496888    -0.54560
C816        C  0.08444988  0.49465123  0.65938713     0.72610
Zr817      Zr  0.09996332  0.46172302  0.60590150     2.77540
O818        O  0.14306126  0.50070755  0.61051793    -0.98110
O819        O  0.08146726  0.48099469  0.57795963    -0.78930
Zr820      Zr  0.13105476  0.43311167  0.65265303     2.70070
O821        O  0.17512866  0.46935467  0.65016381    -0.80180
O822        O  0.14457020  0.41448540  0.68699571    -0.99260
Zr823      Zr  0.06961692  0.43407590  0.67073330     2.21500
Zr824      Zr  0.09374647  0.39498682  0.58251957     2.11130
O825        O  0.12198363  0.43766067  0.60673137    -2.47950
O826        O  0.11018744  0.45792436  0.65093781    -0.79970
O827        O  0.07202890  0.41963508  0.58169193    -0.72160
O828        O  0.09162070  0.41022606  0.67478666    -2.33120
O829        O  0.05982474  0.43854130  0.62530727    -2.29330
O830        O  0.10245828  0.39139189  0.62934608    -0.73920
H831        H  0.04354412  0.35393073  0.59599222     0.78070
H832        H  0.09501545  0.40922498  0.69379098     0.79160
H833        H  0.13817741  0.44644122  0.59785930     0.81390
H834        H  0.05105602  0.44845470  0.62478826     0.78990
H835        H  0.08212135  0.36366138  0.70300587     0.42030
H836        H  0.13505539  0.39546395  0.68107161     0.41000
H837        H  0.17278815  0.48430807  0.64708663     0.40680
H838        H  0.15471191  0.49507605  0.60186339     0.38610
H839        H  0.06880022  0.46627595  0.56475502     0.41740
H840        H  0.02183225  0.43228911  0.58050245     0.36530
H841        H  0.49132711  0.34714393  0.61641729     0.42640
H842        H  0.02430629  0.31814206  0.62534575     0.39060
H843        H  0.14193923  0.01218473  0.59784562     0.43980
H844        H  0.99946078  0.40444272  0.56873423     0.42700
H845        H  0.02419523  0.31574760  0.65685164     0.42840
H846        H  0.16302339  0.42027378  0.68373141     0.43190
O847        O  0.15080704  0.11983443  0.83014263    -0.75680
O848        O  0.18839963  0.12113771  0.81756642    -0.54580
C849        C  0.16982451  0.12638017  0.81452184     0.78050
O850        O  0.16747445  0.12541654  0.96315183    -0.60280
O851        O  0.13344654  0.08499939  0.96790916    -0.53310
C852        C  0.14714962  0.10991238  0.97509106     0.70070
O853        O  0.22965417  0.15516113  0.90439870    -0.74840
O854        O  0.23444794  0.14085788  0.86147255    -0.55400
C855        C  0.24219662  0.15796247  0.88258636     0.76070
O856        O  0.09239704  0.07861710  0.89021857    -0.59980
O857        O  0.09165203  0.05817041  0.92774029    -0.53100
C858        C  0.08172095  0.06701305  0.91130780     0.72660
Zr859      Zr  0.13277153  0.09328161  0.86716752     2.54710
O860        O  0.12857397  0.13178227  0.87792070    -0.80550
O861        O  0.09779078  0.07387077  0.83114741    -0.93960
Zr862      Zr  0.19085071  0.12311719  0.92384989     2.64680
O863        O  0.19388021  0.16572915  0.92879976    -0.98920
O864        O  0.22338788  0.13601382  0.96146955    -0.80980
O865        O  0.17842466  0.11952570  0.87680540    -0.84340
O866        O  0.14530062  0.09844259  0.91384441    -2.19050
O867        O  0.10715912  0.99689449  0.88020376    -0.67730
O868        O  0.09199574  0.01587814  0.91104790    -0.52290
C869        C  0.08869148  0.99729166  0.89294813     0.71040
O870        O  0.23357770  0.07009123  0.88575084    -0.60630
O871        O  0.23593218  0.09351328  0.85017641    -0.52610
C872        C  0.24461782  0.08240976  0.86505114     0.72850
O873        O  0.17424753  0.02973503  0.94865892    -0.72030
O874        O  0.13585706  0.02818335  0.95838758    -0.50710
C875        C  0.15307535  0.02121152  0.96165256     0.74230
O876        O  0.17338591  0.03254389  0.82695428    -0.67360
O877        O  0.18932402  0.06995816  0.80817398    -0.54560
C878        C  0.17945965  0.04503234  0.80595579     0.72610
Zr879      Zr  0.13917923  0.03018128  0.85514408     2.77540
O880        O  0.13053545  0.48768584  0.83369750    -0.98110
O881        O  0.10750053  0.02145861  0.81793867    -0.78930
Zr882      Zr  0.19582069  0.05946012  0.91308465     2.70070
O883        O  0.20352412  0.02279225  0.90765484    -0.80180
O884        O  0.23029728  0.08236637  0.94941111    -0.99260
Zr885      Zr  0.19723300  0.09750632  0.85151092     2.21500
Zr886      Zr  0.13147402  0.05617108  0.92738560     2.11130
O887        O  0.15051467  0.03376976  0.90253297    -2.47950
O888        O  0.18445040  0.05543440  0.86558998    -0.79970
O889        O  0.11944519  0.05127187  0.87972862    -0.72160
O890        O  0.20970782  0.10136892  0.89919937    -2.33120
O891        O  0.15131141  0.07165743  0.84109406    -2.29330
O892        O  0.17730660  0.08149138  0.93875092    -0.73920
H893        H  0.13655295  0.10664613  0.92313608     0.78070
H894        H  0.22841055  0.11147773  0.90239357     0.79160
H895        H  0.14486180  0.01668211  0.90804023     0.81390
H896        H  0.14702763  0.07023139  0.82174578     0.78990
H897        H  0.23901503  0.13778334  0.95254523     0.42030
H898        H  0.22174946  0.08597764  0.96509512     0.41000
H899        H  0.19153127  0.01116792  0.89192635     0.40680
H900        H  0.13030015  0.47783793  0.84899437     0.38610
H901        H  0.09235142  0.02048374  0.82726442     0.41740
H902        H  0.10597512  0.07184766  0.81430000     0.36530
H903        H  0.14665227  0.14622230  0.88263235     0.42640
H904        H  0.17566038  0.16190718  0.92975201     0.39060
H905        H  0.11232785  0.47862136  0.82589248     0.43980
H906        H  0.09402894  0.08796100  0.82823835     0.42700
H907        H  0.20196600  0.17363457  0.94749769     0.42840
H908        H  0.23392147  0.06884547  0.95499722     0.43190
O909        O  0.03863596  0.17917748  0.71124599    -0.75680
O910        O  0.04735810  0.14896253  0.72591619    -0.54580
C911        C  0.03469384  0.16144025  0.72704830     0.78050
O912        O  0.02711117  0.15525241  0.58815981    -0.60280
O913        O  0.06515269  0.17554798  0.56750977    -0.53310
C914        C  0.04003046  0.16186677  0.56689750     0.70070
O915        O  0.00752333  0.11369948  0.66171197    -0.74840
O916        O  0.02811224  0.09960662  0.68784310    -0.55400
C917        C  0.00789243  0.09568246  0.67375711     0.76070
O918        O  0.08005156  0.23714653  0.64730834    -0.59980
O919        O  0.09213593  0.23058420  0.60443550    -0.53100
C920        C  0.08692321  0.24377466  0.62293014     0.72660
Zr921      Zr  0.06988892  0.20114685  0.67598233     2.54710
O922        O  0.03657342  0.21361653  0.67746020    -0.80550
O923        O  0.09426310  0.23594777  0.71289466    -0.93960
Zr924      Zr  0.03455317  0.13584184  0.62521284     2.64680
O925        O  0.48808394  0.11908741  0.61609711    -0.98920
O926        O  0.02346510  0.09679868  0.59398715    -0.80980
O927        O  0.04525308  0.15488057  0.67110791    -0.84340
O928        O  0.05848436  0.18247332  0.62951317    -2.19050
O929        O  0.16176068  0.23334361  0.64657272    -0.67730
O930        O  0.14150458  0.23133548  0.60601501    -0.52290
C931        C  0.16128319  0.24228016  0.62364802     0.71040
O932        O  0.09159206  0.09818585  0.64790764    -0.60630
O933        O  0.07167072  0.09818802  0.68744784    -0.52610
C934        C  0.08108849  0.08829461  0.66958246     0.72850
O935        O  0.11443176  0.14340932  0.57933506    -0.72030
O936        O  0.11365258  0.17881113  0.56637415    -0.50710
C937        C  0.11714462  0.15902996  0.56187372     0.74230
O938        O  0.14281219  0.17722175  0.71302049    -0.67360
O939        O  0.10376729  0.14546677  0.72605407    -0.54560
C940        C  0.12895999  0.15886541  0.72819959     0.72610
Zr941      Zr  0.13495703  0.19836786  0.67525639     2.77540
O942        O  0.17868623  0.20438622  0.67552054    -0.98110
O943        O  0.14934718  0.23490371  0.71092384    -0.78930
Zr944      Zr  0.10014405  0.13427315  0.62404990     2.70070
O945        O  0.14232816  0.13674918  0.62626272    -0.80180
O946        O  0.08010501  0.09329668  0.59391486    -0.99260
Zr947      Zr  0.07086591  0.13916294  0.69104255     2.21500
Zr948      Zr  0.09789559  0.19345022  0.60677583     2.11130
O949        O  0.12516557  0.18022181  0.62825809    -2.47950
O950        O  0.11097057  0.15219072  0.67023527    -0.79970
O951        O  0.10897243  0.21267265  0.65378525    -0.72160
O952        O  0.06016351  0.12060026  0.64443796    -2.33120
O953        O  0.09552051  0.18616126  0.69755618    -2.29330
O954        O  0.07331158  0.14712737  0.60261760    -0.73920
H955        H  0.04905277  0.18992764  0.62172323     0.78070
H956        H  0.05026723  0.10177703  0.64297600     0.79160
H957        H  0.14102116  0.18561186  0.61886541     0.81390
H958        H  0.09907265  0.19240394  0.71686953     0.78990
H959        H  0.02219075  0.08337216  0.60536391     0.42030
H960        H  0.07012961  0.09568441  0.57931956     0.41000
H961        H  0.15056703  0.14650488  0.64438729     0.40680
H962        H  0.18219435  0.20285635  0.65594272     0.38610
H963        H  0.14450730  0.24680650  0.70316270     0.41740
H964        H  0.08341842  0.23027809  0.72884153     0.36530
H965        H  0.02220616  0.20002741  0.66470827     0.42640
H966        H  0.48606154  0.13470287  0.61741352     0.39060
H967        H  0.19039365  0.22304828  0.68224454     0.43980
H968        H  0.09281890  0.25090135  0.70770499     0.42700
H969        H  0.48432174  0.11215224  0.59644099     0.42840
H970        H  0.09469807  0.09293020  0.58464509     0.43190
O971        O  0.32425251  0.46538852  0.68917687    -0.75680
O972        O  0.36175018  0.46591653  0.70154994    -0.54580
C973        C  0.34493462  0.47348919  0.70502125     0.78050
O974        O  0.27823568  0.33669107  0.61274107    -0.60280
O975        O  0.26067206  0.35109561  0.58293602    -0.53310
C976        C  0.25857182  0.33395233  0.59868845     0.70070
O977        O  0.32742285  0.37022716  0.69044741    -0.74840
O978        O  0.36111098  0.41118109  0.70454138    -0.55400
C979        C  0.34646795  0.38675540  0.70735811     0.76070
O980        O  0.26393158  0.42147352  0.61841483    -0.59980
O981        O  0.26058790  0.39789898  0.57734316    -0.53100
C982        C  0.25175388  0.40817531  0.59550614     0.72660
Zr983      Zr  0.30402326  0.43642884  0.64627048     2.54710
O984        O  0.26978298  0.42075413  0.67846998    -0.80550
O985        O  0.30176060  0.47551765  0.64056011    -0.93960
Zr986      Zr  0.30462620  0.37101181  0.64924932     2.64680
O987        O  0.26823803  0.36560213  0.67625634    -0.98920
O988        O  0.29161289  0.32750486  0.66130190    -0.80980
O989        O  0.32009626  0.41403976  0.67062263    -0.84340
O990        O  0.28777651  0.39296229  0.62571753    -2.19050
O991        O  0.34382776  0.46199963  0.55546993    -0.67730
O992        O  0.30853021  0.42219632  0.54027400    -0.52290
C993        C  0.32573759  0.44640120  0.53746699     0.71040
O994        O  0.40002592  0.40541804  0.63063062    -0.60630
O995        O  0.40447899  0.43285634  0.66880673    -0.52610
C996        C  0.41213044  0.41994866  0.65295630     0.72850
O997        O  0.33092523  0.35610377  0.57065888    -0.72030
O998        O  0.30979666  0.36856849  0.54307386    -0.50710
C999        C  0.32253975  0.35658870  0.54679407     0.74230
O1000       O  0.40214068  0.49173928  0.62501601    -0.67360
O1001       O  0.40561701  0.47848478  0.66600585    -0.54560
C1002       C  0.41441675  0.49481932  0.64799019     0.72610
Zr1003     Zr  0.36236057  0.46023952  0.59808534     2.77540
O1004       O  0.39624205  0.47201726  0.56550274    -0.98110
O1005       O  0.36427395  0.50224854  0.60039104    -0.78930
Zr1006     Zr  0.36257535  0.39474474  0.60021442     2.70070
O1007       O  0.39299790  0.41504250  0.56520607    -0.80180
O1008       O  0.37800310  0.36368449  0.59317261    -0.99260
Zr1009     Zr  0.36600086  0.43653905  0.66643550     2.21500
Zr1010     Zr  0.29978257  0.39416215  0.57870359     2.11130
O1011       O  0.34631929  0.41713038  0.57622652    -2.47950
O1012       O  0.37924434  0.43805682  0.62066350    -0.79970
O1013       O  0.31640132  0.43794344  0.60018048    -0.72160
O1014       O  0.35046270  0.39269721  0.64615290    -2.33120
O1015       O  0.34974540  0.45961311  0.64347046    -2.29330
O1016       O  0.31680572  0.37203613  0.60317735    -0.73920
H1017       H  0.26906271  0.38329595  0.62632247     0.78070
H1018       H  0.35808644  0.38411258  0.65518268     0.79160
H1019       H  0.35073757  0.41744464  0.55731255     0.81390
H1020       H  0.35720206  0.47746380  0.65167869     0.78990
H1021       H  0.30417744  0.32317604  0.65259982     0.42030
H1022       H  0.36385359  0.34719396  0.59898346     0.41000
H1023       H  0.40931762  0.42844416  0.57563775     0.40680
H1024       H  0.38829755  0.45844107  0.54959794     0.38610
H1025       H  0.34582229  0.49782979  0.60021106     0.41740
H1026       H  0.31971790  0.49018808  0.64531498     0.36530
H1027       H  0.26574217  0.43500023  0.68191815     0.42640
H1028       H  0.25288144  0.35832135  0.66311482     0.39060
H1029       H  0.39810970  0.48796096  0.55860557     0.43980
H1030       H  0.29156193  0.47690433  0.65583348     0.42700
H1031       H  0.26469933  0.35116370  0.68725871     0.42840
H1032       H  0.37782883  0.36015286  0.57302418     0.43190
C1033       C  0.44004913  0.01928625  0.65418594    -0.06510
C1034       C  0.45108086  0.02719675  0.68133140    -0.17640
C1035       C  0.47346434  0.05166664  0.68855512     0.10690
C1036       C  0.48465283  0.06919730  0.66864601    -0.06430
C1037       C  0.47421003  0.06086426  0.64153221    -0.17670
C1038       C  0.45314448  0.03599884  0.63384898     0.10720
S1039       S  0.48599998  0.05990143  0.72355286    -0.32630
S1040       S  0.44560853  0.02669824  0.59746654    -0.32640
H1041       H  0.44240811  0.50169951  0.59871184     0.28730
H1042       H  0.98989526  0.08520189  0.72408510     0.28720
H1043       H  0.44191107  0.01461380  0.69723889     0.19320
H1044       H  0.48322022  0.07355818  0.62574524     0.19320
C1045       C  0.18539070  0.26672780  0.61715221    -0.06510
C1046       C  0.18925337  0.27328100  0.58989661    -0.17640
C1047       C  0.21248454  0.29503487  0.58275388     0.10690
C1048       C  0.23278982  0.31064008  0.60311477    -0.06430
C1049       C  0.22860664  0.30423322  0.63016543    -0.17670
C1050       C  0.20529732  0.28353605  0.63755045     0.10720
S1051       S  0.21535591  0.30099197  0.54730111    -0.32630
S1052       S  0.20205625  0.28125153  0.67384253    -0.32640
H1053       H  0.17697018  0.27823067  0.67288782     0.28730
H1054       H  0.24220602  0.31002162  0.54731151     0.28720
H1055       H  0.17433404  0.26106907  0.57382575     0.19320
H1056       H  0.24352462  0.31613368  0.64626143     0.19320
C1057       C  0.14268105  0.15145378  0.74869285    -0.06510
C1058       C  0.16469704  0.17048719  0.76548481    -0.17640
C1059       C  0.17618715  0.16338535  0.78612013     0.10690
C1060       C  0.16631634  0.13662562  0.78928714    -0.06430
C1061       C  0.14566404  0.11797685  0.77148288    -0.17670
C1062       C  0.13369909  0.12491418  0.75209252     0.10720
S1063       S  0.20227755  0.18922691  0.80848547    -0.32630
S1064       S  0.10708631  0.09827804  0.73207815    -0.32640
H1065       H  0.11880444  0.10922967  0.70829188     0.28730
H1066       H  0.21058111  0.17362819  0.81996871     0.28720
H1067       H  0.17222345  0.19097964  0.76344484     0.19320
H1068       H  0.13751893  0.09741441  0.77391486     0.19320
C1069       C  0.13845694  0.12279731  0.99686537    -0.06510
C1070       C  0.15487801  0.14988993  0.50525510    -0.17640
C1071       C  0.14744229  0.16375290  0.52427630     0.10690
C1072       C  0.12267282  0.15073084  0.53476581    -0.06430
C1073       C  0.10574167  0.12428587  0.52523819    -0.17670
C1074       C  0.11356474  0.11000179  0.50765083     0.10720
S1075       S  0.17112756  0.19720956  0.53613744    -0.32630
S1076       S  0.09177615  0.07518299  0.00287408    -0.32640
H1077       H  0.08764565  0.07473537  0.97476104     0.28730
H1078       H  0.15287121  0.20543315  0.54052225     0.28720
H1079       H  0.17408100  0.16044149  0.99752104     0.19320
H1080       H  0.08696338  0.11385583  0.53398315     0.19320
C1081       C  0.13325378  0.46336962  0.51932747    -0.06510
C1082       C  0.15352120  0.48952426  0.52588105    -0.17640
C1083       C  0.16072356  0.00844060  0.50749587     0.10690
C1084       C  0.14786023  0.00143224  0.98116562    -0.06430
C1085       C  0.12879065  0.47498469  0.97374341    -0.17670
C1086       C  0.12156068  0.45598271  0.99234624     0.10720
S1087       S  0.18405789  0.04178846  0.52040524    -0.32630
S1088       S  0.09581560  0.42323883  0.98133919    -0.32640
H1089       H  0.10715627  0.41124471  0.49505402     0.28730
H1090       H  0.19503245  0.04985591  0.49545690     0.28720
H1091       H  0.16247191  0.99587681  0.54657676     0.19320
H1092       H  0.11891320  0.46920395  0.95350528     0.19320
C1093       C  0.14198171  0.49127432  0.73386160    -0.06510
C1094       C  0.16243154  0.49091412  0.74818262    -0.17640
C1095       C  0.17646398  0.50933303  0.77087519     0.10690
C1096       C  0.17089222  0.02942628  0.77883268    -0.06430
C1097       C  0.15148585  0.03059661  0.76377707    -0.17670
C1098       C  0.13654334  0.01148351  0.74220298     0.10720
S1099       S  0.20079927  0.50586598  0.78924207    -0.32630
S1100       S  0.11037943  0.01388196  0.72695901    -0.32640
H1101       H  0.09111747  0.99146820  0.73774333     0.28730
H1102       H  0.21570036  0.53219198  0.80033091     0.28720
H1103       H  0.16695705  0.47566226  0.74224727     0.19320
H1104       H  0.14645099  0.04539288  0.77029756     0.19320
C1105       C  0.08507106  0.01910276  0.66828238    -0.06510
C1106       C  0.06213464  0.01834889  0.67675225    -0.17640
C1107       C  0.06010911  0.04089663  0.67870606     0.10690
C1108       C  0.08199149  0.06467967  0.67367724    -0.06430
C1109       C  0.10573874  0.06568204  0.66861889    -0.17670
C1110       C  0.10755148  0.04326114  0.66596462     0.10720
S1111       S  0.02873975  0.03754162  0.68479400    -0.32630
S1112       S  0.13898497  0.04681076  0.65923739    -0.32640
H1113       H  0.13502758  0.02469750  0.67138948     0.28730
H1114       H  0.03004747  0.05408373  0.66540498     0.28720
H1115       H  0.04514094  0.49987434  0.67978725     0.19320
H1116       H  0.12289742  0.08410889  0.66559523     0.19320
C1117       C  0.08961609  0.26870450  0.61572052    -0.06510
C1118       C  0.07691023  0.26902332  0.59147873    -0.17640
C1119       C  0.07677090  0.29172258  0.58550833     0.10690
C1120       C  0.09043508  0.31495145  0.60364524    -0.06430
C1121       C  0.10471684  0.31486667  0.62665350    -0.17670
C1122       C  0.10465057  0.29233929  0.63273856     0.10720
S1123       S  0.05746081  0.28914304  0.55563265    -0.32630
S1124       S  0.12400843  0.29506071  0.66273934    -0.32640
H1125       H  0.13081441  0.27666397  0.65186350     0.28730
H1126       H  0.04952782  0.30657099  0.56662081     0.28720
H1127       H  0.06577950  0.25110105  0.57790596     0.19320
H1128       H  0.11493401  0.33233802  0.64103811     0.19320
C1129       C  0.17632527  0.40085794  0.59600271    -0.06510
C1130       C  0.19050285  0.40883075  0.57252991    -0.17640
C1131       C  0.21472666  0.41003041  0.57041505     0.10690
C1132       C  0.22469531  0.40281534  0.59216097    -0.06430
C1133       C  0.20916362  0.39240861  0.61413436    -0.17670
C1134       C  0.18518505  0.39121963  0.61626009     0.10720
S1135       S  0.23221458  0.42223146  0.54037884    -0.32630
S1136       S  0.16631872  0.37770189  0.64528761    -0.32640
H1137       H  0.18231531  0.36923687  0.65650707     0.28730
H1138       H  0.25725864  0.43195923  0.55246382     0.28720
H1139       H  0.18355425  0.41579190  0.55665158     0.19320
H1140       H  0.21647741  0.38615301  0.63039316     0.19320
C1141       C  0.43759541  0.42319119  0.65953390    -0.06510
C1142       C  0.45897132  0.44380415  0.64896655    -0.17640
C1143       C  0.48288482  0.44476151  0.64820340     0.10690
C1144       C  0.48561292  0.42497978  0.65901509    -0.06430
C1145       C  0.46442391  0.40491501  0.67061976    -0.17670
C1146       C  0.44042029  0.40388767  0.67109832     0.10720
S1147       S  0.00768505  0.46970303  0.62990229    -0.32630
S1148       S  0.41368096  0.37651597  0.68467866    -0.32640
H1149       H  0.39962805  0.38923871  0.69176427     0.28730
H1150       H  0.02888480  0.46885890  0.64120440     0.28720
H1151       H  0.45647061  0.45821950  0.63940828     0.19320
H1152       H  0.46604638  0.38904782  0.67775934     0.19320
C1153       C  0.48254305  0.12343861  0.99991768    -0.06510
C1154       C  0.49753064  0.15114260  0.50366511    -0.17640
C1155       C  0.01772936  0.16472478  0.52420267     0.10690
C1156       C  0.02397630  0.15047849  0.54099710    -0.06430
C1157       C  0.00983666  0.12304387  0.53677021    -0.17670
C1158       C  0.48926466  0.10941002  0.51684679     0.10720
S1159       S  0.03394228  0.19998079  0.52829885    -0.32630
S1160       S  0.47158060  0.07431897  0.01571264    -0.32640
H1161       H  0.48029809  0.07060941  0.99002430     0.28730
H1162       H  0.04257783  0.20409165  0.55597263     0.28720
H1163       H  0.49331615  0.16259849  0.99079935     0.19320
H1164       H  0.01418382  0.11199089  0.55007167     0.19320
C1165       C  0.47422541  0.13218522  0.78626685    -0.06510
C1166       C  0.47940814  0.15484689  0.77437777    -0.17640
C1167       C  0.49808514  0.16469476  0.75419118     0.10690
C1168       C  0.01344912  0.15289409  0.74719357    -0.06430
C1169       C  0.00754404  0.13018633  0.75916103    -0.17670
C1170       C  0.48754097  0.11907817  0.77667327     0.10720
S1171       S  0.50162913  0.19243847  0.73877446    -0.32630
S1172       S  0.48016900  0.08759182  0.78596770    -0.32640
H1173       H  0.45336956  0.07793733  0.78672146     0.28730
H1174       H  0.99603440  0.17931143  0.71205802     0.28720
H1175       H  0.46934298  0.16515863  0.78110687     0.19320
H1176       H  0.01820313  0.12008869  0.75439648     0.19320
C1177       C  0.35385082  0.99749121  0.97484873    -0.06510
C1178       C  0.33356518  0.99658884  0.49029113    -0.17640
C1179       C  0.32140356  0.47806847  0.50922306     0.10690
C1180       C  0.32792695  0.45829669  0.51147270    -0.06430
C1181       C  0.34639329  0.45780487  0.49410786    -0.17670
C1182       C  0.35980973  0.47730655  0.97674220     0.10720
S1183       S  0.29891668  0.98197854  0.53093459    -0.32630
S1184       S  0.38522175  0.47579328  0.95846833    -0.32160
H1185       H  0.40503663  0.49646093  0.97607498     0.28730
H1186       H  0.30004797  0.46839228  0.55228841     0.28720
H1187       H  0.32842264  0.01159851  0.48910829     0.19320
H1188       H  0.35253542  0.44362986  0.49624142     0.19320
C1189       C  0.35017441  0.49364737  0.72839353    -0.06510
C1190       C  0.37349214  0.01781945  0.73011984    -0.17640
C1191       C  0.37948544  0.03745722  0.75192166     0.10690
C1192       C  0.36237981  0.03266161  0.77340359    -0.06430
C1193       C  0.33854597  0.50874017  0.77092476    -0.17670
C1194       C  0.33224990  0.48937361  0.74872391     0.10720
S1195       S  0.41003108  0.06742194  0.75198106    -0.32630
S1196       S  0.30235135  0.45834341  0.74775882    -0.32640
H1197       H  0.29253935  0.46454920  0.77150646     0.28730
H1198       H  0.39901794  0.08337787  0.75763958     0.28720
H1199       H  0.38717615  0.02144870  0.71429084     0.19320
H1200       H  0.32538990  0.50465089  0.78732065     0.19320
C1201       C  0.00963392  0.06557132  0.91910170    -0.06510
C1202       C  0.01152169  0.04797193  0.89947045    -0.17640
C1203       C  0.03434537  0.04674875  0.89785000     0.10690
C1204       C  0.05587366  0.06346894  0.91629401    -0.06430
C1205       C  0.05371030  0.08035628  0.93667855    -0.17670
C1206       C  0.03084042  0.08169002  0.93829578     0.10720
S1207       S  0.03566403  0.02520012  0.87026056    -0.32630
S1208       S  0.03126459  0.10594128  0.96375934    -0.32640
H1209       H  0.50721089  0.10339986  0.95626836     0.28730
H1210       H  0.05399804  0.02107149  0.88377071     0.28720
H1211       H  0.99559150  0.03615056  0.88421323     0.19320
H1212       H  0.07056679  0.09406098  0.95007109     0.19320
C1213       C  0.31655171  0.08384994  0.85358392    -0.06510
C1214       C  0.31684972  0.10730477  0.86131251    -0.17640
C1215       C  0.29356056  0.10762998  0.86420767     0.10690
C1216       C  0.26949732  0.08411423  0.85851114    -0.06430
C1217       C  0.26929952  0.06107916  0.84879786    -0.17670
C1218       C  0.29257979  0.06076474  0.84608195     0.10720
S1219       S  0.29594302  0.13809616  0.87760208    -0.32630
S1220       S  0.29057980  0.03013000  0.83421416    -0.32640
H1221       H  0.31561836  0.04116185  0.82415238     0.28730
H1222       H  0.27444522  0.12713554  0.89387840     0.28720
H1223       H  0.33522431  0.12498548  0.86750093     0.19320
H1224       H  0.25087818  0.04305499  0.84415649     0.19320
C1225       C  0.47288572  0.32990575  0.97949536    -0.06510
C1226       C  0.48729199  0.31719227  0.98272305    -0.17640
C1227       C  0.00883475  0.32770650  0.50225834     0.10690
C1228       C  0.01746418  0.35251003  0.51717753    -0.06430
C1229       C  0.00361680  0.36539397  0.51249746    -0.17670
C1230       C  0.48094053  0.35380638  0.99559606     0.10720
S1231       S  0.02381021  0.30841930  0.50735391    -0.32630
S1232       S  0.46337803  0.37118389  0.99469260    -0.32640
H1233       H  0.43887023  0.34848162  0.98908620     0.28730
H1234       H  0.04821234  0.32930483  0.51756246     0.28720
H1235       H  0.48207737  0.29934736  0.96967041     0.19320
H1236       H  0.00948914  0.38419051  0.52391195     0.19320
C1237       C  0.48300449  0.35365560  0.77266069    -0.06510
C1238       C  0.49019825  0.37794852  0.76358756    -0.17640
C1239       C  0.50758682  0.38800207  0.74344129     0.10690
C1240       C  0.01872209  0.37366159  0.73113325    -0.06430
C1241       C  0.01170453  0.34925065  0.73994604    -0.17670
C1242       C  0.49431871  0.33926201  0.76073790     0.10720
S1243       S  0.51258632  0.41836711  0.73322454    -0.32630
S1244       S  0.48743372  0.30817543  0.77066078    -0.32640
H1245       H  0.49788347  0.31875435  0.79768511     0.28730
H1246       H  0.00354786  0.40637177  0.70648696     0.28720
H1247       H  0.48211800  0.38967056  0.77212091     0.19320
H1248       H  0.02003515  0.33796161  0.73082276     0.19320
C1249       C  0.41320754  0.47580776  0.88991014    -0.06510
C1250       C  0.43783057  0.47855551  0.88675168    -0.17640
C1251       C  0.44026302  0.45880787  0.87188976     0.10690
C1252       C  0.41770777  0.43628831  0.86002983    -0.06430
C1253       C  0.39326922  0.43415012  0.86222863    -0.17670
C1254       C  0.39064127  0.45302236  0.87818042     0.10720
S1255       S  0.47188731  0.46168985  0.86925083    -0.32630
S1256       S  0.35794866  0.44721087  0.88218320    -0.32640
H1257       H  0.36421011  0.46773857  0.90288751     0.28730
H1258       H  0.48492280  0.48300592  0.88964790     0.28720
H1259       H  0.45511001  0.49668195  0.89458323     0.19320
H1260       H  0.37583783  0.41617486  0.85418521     0.19320
C1261       C  0.41403497  0.18351945  0.88443636    -0.06510
C1262       C  0.39894161  0.18538378  0.86349554    -0.17640
C1263       C  0.39487399  0.20663184  0.86418031     0.10690
C1264       C  0.40629088  0.22678775  0.88612520    -0.06430
C1265       C  0.42052030  0.22473379  0.90749486    -0.17670
C1266       C  0.42480347  0.20361748  0.90698948     0.10720
S1267       S  0.37480245  0.20688571  0.83652494    -0.32630
S1268       S  0.44575857  0.20445527  0.93458955    -0.32640
H1269       H  0.44546877  0.22421116  0.95249914     0.28730
H1270       H  0.36621408  0.22209306  0.85179996     0.28720
H1271       H  0.38990495  0.17003795  0.84655376     0.19320
H1272       H  0.42979347  0.24071249  0.92378943     0.19320
C1273       C  0.06249122  0.47559783  0.88450227    -0.06510
C1274       C  0.05808859  0.46495530  0.85680511    -0.17640
C1275       C  0.03472725  0.44294979  0.84714191     0.10690
C1276       C  0.01483996  0.43207111  0.86518002    -0.06430
C1277       C  0.01813112  0.44399113  0.89207379    -0.17670
C1278       C  0.04193241  0.46545503  0.90216858     0.10720
S1279       S  0.03187108  0.42937301  0.81205118    -0.32630
S1280       S  0.04512004  0.47767592  0.93782744    -0.32640
H1281       H  0.06967328  0.98010981  0.94281404     0.28730
H1282       H  0.01676962  0.40308258  0.81685852     0.28720
H1283       H  0.07325488  0.47337295  0.84261999     0.19320
H1284       H  0.00240827  0.43579779  0.90564087     0.19320
C1285       C  0.31607757  0.22913748  0.88729989    -0.06510
C1286       C  0.30745112  0.21220986  0.86284240    -0.17640
C1287       C  0.28338965  0.18926155  0.86016516     0.10690
C1288       C  0.26770325  0.18235703  0.88298718    -0.06430
C1289       C  0.27718013  0.19901883  0.90789274    -0.17670
C1290       C  0.30082865  0.22243159  0.91011506     0.10720
S1291       S  0.27413607  0.17062381  0.82679904    -0.32630
S1292       S  0.30955580  0.24347685  0.94198659    -0.32640
H1293       H  0.31853437  0.26673507  0.92974149     0.28730
H1294       H  0.25052899  0.17065502  0.82434990     0.28720
H1295       H  0.31921942  0.21746789  0.84520028     0.19320
H1296       H  0.26586567  0.19426825  0.92584815     0.19320
C1297       C  0.36171799  0.33383176  0.98568266    -0.06510
C1298       C  0.33695201  0.31465693  0.99280060    -0.17640
C1299       C  0.32277228  0.32108245  0.51215321     0.10690
C1300       C  0.33278594  0.34748426  0.52329988    -0.06430
C1301       C  0.35730015  0.36617640  0.51615352    -0.17670
C1302       C  0.37224387  0.35961684  0.99908176     0.10720
S1303       S  0.29199030  0.29500095  0.52115260    -0.32630
S1304       S  0.40492563  0.38574359  0.99528559    -0.32640
H1305       H  0.41459128  0.36968046  0.98499455     0.28730
H1306       H  0.28240010  0.31084322  0.53263611     0.28720
H1307       H  0.32821640  0.29494093  0.98261007     0.19320
H1308       H  0.36547105  0.38626011  0.52492255     0.19320
C1309       C  0.35283684  0.37616716  0.73044876    -0.06510
C1310       C  0.35630985  0.35453822  0.72444422    -0.17640
C1311       C  0.36348451  0.34412784  0.74506864     0.10690
C1312       C  0.36656809  0.35507695  0.77254673    -0.06430
C1313       C  0.36226996  0.37613119  0.77871215    -0.17670
C1314       C  0.35566354  0.38688764  0.75797718     0.10720
S1315       S  0.37011914  0.31817885  0.73469819    -0.32630
S1316       S  0.35004763  0.41351879  0.76779439    -0.32640
H1317       H  0.37102775  0.43129059  0.75373737     0.28730
H1318       H  0.36493331  0.30707374  0.75953131     0.28720
H1319       H  0.35423572  0.34620044  0.70333419     0.19320
H1320       H  0.36488895  0.38478540  0.79977497     0.19320
O1321       O  0.36245856  0.82842466  0.30764532    -0.75680
O1322       O  0.40244374  0.86240101  0.29999400    -0.54580
C1323       C  0.37780725  0.84786729  0.29462720     0.78050
O1324       O  0.37816201  0.84850554  0.44466873    -0.60280
O1325       O  0.37817518  0.81155096  0.45340561    -0.53310
C1326       C  0.37312673  0.83031974  0.45961641     0.70070
O1327       O  0.40667479  0.90012673  0.38047651    -0.74840
O1328       O  0.42732747  0.90434858  0.34071265    -0.55400
C1329       C  0.41708450  0.91187029  0.35964339     0.76070
O1330       O  0.34023098  0.76590845  0.36529175    -0.59980
O1331       O  0.35680995  0.76389109  0.40672498    -0.53100
C1332       C  0.33933472  0.75468584  0.38668800     0.72660
Zr1333     Zr  0.36665966  0.80575686  0.34526331     2.54710
O1334       O  0.32517312  0.80412148  0.35082176    -0.80550
O1335       O  0.34829193  0.77101028  0.30723498    -0.93960
Zr1336     Zr  0.39858654  0.86381575  0.40363865     2.64680
O1337       O  0.35847846  0.86566464  0.40328560    -0.98920
O1338       O  0.42029045  0.90255949  0.43682069    -0.80980
O1339       O  0.38983149  0.85126584  0.35614345    -0.84340
O1340       O  0.37392527  0.81814387  0.39358513    -2.19050
O1341       O  0.41690931  0.76246934  0.36237822    -0.67730
O1342       O  0.40276212  0.76289651  0.40564201    -0.52290
C1343       C  0.40830530  0.75221757  0.38463807     0.71040
O1344       O  0.49163891  0.88723599  0.36736344    -0.60630
O1345       O  0.47250770  0.90494354  0.34463760    -0.52610
C1346       C  0.49182872  0.90675928  0.35829196     0.72850
O1347       O  0.47173354  0.84041556  0.43606281    -0.72030
O1348       O  0.43247440  0.81112348  0.45105281    -0.50710
C1349       C  0.45771608  0.82555887  0.45357508     0.74230
O1350       O  0.45952178  0.82553848  0.30706882    -0.67360
O1351       O  0.45415166  0.85987499  0.30046855    -0.54560
C1352       C  0.46416687  0.84538760  0.29459810     0.72610
Zr1353     Zr  0.43158774  0.80332485  0.34352873     2.77540
O1354       O  0.46908244  0.79701399  0.34529720    -0.98110
O1355       O  0.41055310  0.77033088  0.30424215    -0.78930
Zr1356     Zr  0.46395495  0.86229462  0.40181007     2.70070
O1357       O  0.50953441  0.87669754  0.41304870    -0.80180
O1358       O  0.47592255  0.90047993  0.43457988    -0.99260
Zr1359     Zr  0.43082538  0.86573906  0.33727219     2.21500
Zr1360     Zr  0.39979337  0.80237283  0.41328492     2.11130
O1361       O  0.44010880  0.81616346  0.39163624    -2.47950
O1362       O  0.45651415  0.84899689  0.35420197    -0.79970
O1363       O  0.39185736  0.78977709  0.36459597    -0.72160
O1364       O  0.43958363  0.88003237  0.38519935    -2.33120
O1365       O  0.40671607  0.81986741  0.32444239    -2.29330
O1366       O  0.42420142  0.84847895  0.42348923    -0.73920
H1367       H  0.35736910  0.81139517  0.40184679     0.78070
H1368       H  0.44936073  0.89884963  0.38892923     0.79160
H1369       H  0.44917510  0.80789893  0.39836099     0.81390
H1370       H  0.40421120  0.81585043  0.30474026     0.78990
H1371       H  0.40872700  0.91012219  0.43720543     0.42030
H1372       H  0.46094221  0.89532573  0.44620005     0.41000
H1373       H  0.01323341  0.86493095  0.40070594     0.40680
H1374       H  0.46984052  0.79209815  0.36386670     0.38610
H1375       H  0.41533709  0.78020131  0.28805035     0.41740
H1376       H  0.36242127  0.77560304  0.29450227     0.36530
H1377       H  0.32993213  0.82261092  0.35534342     0.42640
H1378       H  0.34461449  0.84794089  0.40656198     0.39060
H1379       H  0.46373807  0.78084359  0.33285329     0.43980
H1380       H  0.33526937  0.77367483  0.29752528     0.42700
H1381       H  0.36013463  0.87693290  0.42025111     0.42840
H1382       H  0.49004075  0.90193787  0.44680872     0.43190
O1383       O  0.42353131  0.65510037  0.40576390    -0.75680
O1384       O  0.41015501  0.64443394  0.36049298    -0.54580
C1385       C  0.41638549  0.65965773  0.38324825     0.78050
O1386       O  0.48992620  0.58377284  0.39515935    -0.60280
O1387       O  0.46794516  0.55918905  0.42926887    -0.53310
C1388       C  0.48779456  0.57000237  0.41469223     0.70070
O1389       O  0.47167233  0.61876054  0.32946932    -0.74840
O1390       O  0.43660128  0.62130994  0.31445792    -0.55400
C1391       C  0.45970784  0.62424986  0.31176424     0.76070
O1392       O  0.45634984  0.62598819  0.46532439    -0.59980
O1393       O  0.45175151  0.58606625  0.46899960    -0.53100
C1394       C  0.46170707  0.61066793  0.47712849     0.72660
Zr1395     Zr  0.43194941  0.62375788  0.42446151     2.54710
O1396       O  0.47150642  0.66628843  0.43202463    -0.80550
O1397       O  0.41030088  0.63456921  0.46101389    -0.93960
Zr1398     Zr  0.46424699  0.59767201  0.37047027     2.64680
O1399       O  0.50454342  0.63914167  0.38140889    -0.98920
O1400       O  0.48515598  0.57785695  0.34324649    -0.80980
O1401       O  0.44337144  0.62268015  0.37813418    -0.84340
O1402       O  0.45468855  0.60087511  0.41624009    -2.19050
O1403       O  0.35562073  0.52726241  0.44340555    -0.67730
O1404       O  0.39339614  0.52892552  0.45666537    -0.52290
C1405       C  0.36855384  0.51941983  0.45734614     0.71040
O1406       O  0.36484458  0.53425271  0.32137994    -0.60630
O1407       O  0.38548377  0.57299083  0.30497516    -0.52610
C1408       C  0.37120544  0.54784806  0.30123138     0.72850
O1409       O  0.40246885  0.50306617  0.37243299    -0.72030
O1410       O  0.42253674  0.51563774  0.41543823    -0.50710
C1411       C  0.41240262  0.49960940  0.39357498     0.74230
O1412       O  0.33857408  0.56989263  0.38070350    -0.67360
O1413       O  0.36028845  0.59496619  0.34647474    -0.54560
C1414       C  0.34006016  0.58269799  0.36032002     0.72610
Zr1415     Zr  0.36481967  0.55897876  0.40929719     2.77540
O1416       O  0.32083853  0.52195240  0.39940544    -0.98110
O1417       O  0.35098167  0.57955064  0.44536930    -0.78930
Zr1418     Zr  0.39595030  0.53430488  0.35306604     2.70070
O1419       O  0.36083333  0.98982444  0.33955921    -0.80180
O1420       O  0.41635375  0.52625906  0.31334335    -0.99260
Zr1421     Zr  0.40379668  0.60054348  0.34946979     2.21500
Zr1422     Zr  0.42635390  0.55779091  0.42743525     2.11130
O1423       O  0.38625148  0.53510808  0.39959952    -2.47950
O1424       O  0.37445437  0.55784447  0.36230939    -0.79970
O1425       O  0.40408946  0.58136752  0.43771911    -0.72160
O1426       O  0.42544351  0.57614867  0.34148633    -2.33120
O1427       O  0.39270071  0.60162049  0.39669764    -2.29330
O1428       O  0.43546202  0.55494563  0.38051301    -0.73920
H1429       H  0.47130906  0.60929946  0.42651155     0.78070
H1430       H  0.42887343  0.57467547  0.32250572     0.79160
H1431       H  0.37560683  0.51725633  0.40349251     0.81390
H1432       H  0.38343719  0.61107769  0.39939207     0.78990
H1433       H  0.47191333  0.55901889  0.34029490     0.42030
H1434       H  0.42138685  0.51365007  0.31872918     0.41000
H1435       H  0.34670289  0.48765150  0.35157579     0.40680
H1436       H  0.32302641  0.50644223  0.39694466     0.38610
H1437       H  0.35760258  0.57687709  0.46264079     0.41740
H1438       H  0.39604662  0.63547387  0.45150705     0.36530
H1439       H  0.48517406  0.66340810  0.42383166     0.42640
H1440       H  0.50985466  0.63891402  0.40050933     0.39060
H1441       H  0.31217016  0.52050507  0.41684127     0.43980
H1442       H  0.42296004  0.65291861  0.46804881     0.42700
H1443       H  0.01748244  0.63733545  0.37022158     0.42840
H1444       H  0.40181548  0.51601587  0.29925657     0.43190
O1445       O  0.00551993  0.90807676  0.13004577    -0.75680
O1446       O  0.02778410  0.93233040  0.17011516    -0.54580
C1447       C  0.00777517  0.92152761  0.15292460     0.78050
O1448       O  0.07640149  0.84044931  0.12727669    -0.60280
O1449       O  0.09104994  0.85196236  0.08491825    -0.53310
C1450       C  0.08542938  0.83712084  0.10460037     0.70070
O1451       O  0.03814467  0.86653238  0.19138695    -0.74840
O1452       O  0.04907769  0.90806160  0.20733917    -0.55400
C1453       C  0.03664418  0.88334713  0.20868489     0.76070
O1454       O  0.02218306  0.86634390  0.06297150    -0.59980
O1455       O  0.05933753  0.87168621  0.04411749    -0.53100
C1456       C  0.03443921  0.86326050  0.04302559     0.72660
Zr1457     Zr  0.03259884  0.89600411  0.10344851     2.54710
O1458       O  0.48903217  0.85851757  0.10453028    -0.80550
O1459       O  0.01868047  0.91559020  0.07058718    -0.93960
Zr1460     Zr  0.06308523  0.86834412  0.15136654     2.64680
O1461       O  0.02280776  0.82634337  0.14322213    -0.98920
O1462       O  0.08028049  0.85278879  0.18565618    -0.80980
O1463       O  0.04063512  0.89142634  0.14910819    -0.84340
O1464       O  0.05395845  0.87146289  0.10506975    -2.19050
O1465       O  0.11591547  0.96312523  0.06127369    -0.67730
O1466       O  0.11442315  0.92495701  0.04575757    -0.52290
C1467       C  0.12015453  0.94890636  0.04330354     0.71040
O1468       O  0.14025581  0.96388832  0.19407735    -0.60630
O1469       O  0.10254649  0.96181099  0.20712767    -0.52610
C1470       C  0.12727673  0.97096374  0.21024521     0.72850
O1471       O  0.15490260  0.91676514  0.12493865    -0.72030
O1472       O  0.13621572  0.89793096  0.08182141    -0.50710
C1473       C  0.15429339  0.90542578  0.10100256     0.74230
O1474       O  0.09406642  0.99313086  0.13627784    -0.67360
O1475       O  0.07410141  0.97641013  0.17496907    -0.54560
C1476       C  0.08444998  0.99465066  0.15938730     0.72610
Zr1477     Zr  0.09996329  0.96172263  0.10590131     2.77540
O1478       O  0.14306105  0.00070741  0.11051768    -0.98110
O1479       O  0.08146688  0.98099401  0.07795948    -0.78930
Zr1480     Zr  0.13105490  0.93311119  0.15265241     2.70070
O1481       O  0.17512863  0.96935431  0.15016266    -0.80180
O1482       O  0.14457079  0.91448529  0.18699510    -0.99260
Zr1483     Zr  0.06961715  0.93407531  0.17073327     2.21500
Zr1484     Zr  0.09374637  0.89498650  0.08251893     2.11130
O1485       O  0.12198360  0.93766027  0.10673086    -2.47950
O1486       O  0.11018754  0.95792384  0.15093754    -0.79970
O1487       O  0.07202879  0.91963478  0.08169166    -0.72160
O1488       O  0.09162096  0.91022544  0.17478615    -2.33120
O1489       O  0.05982487  0.93854089  0.12530734    -2.29330
O1490       O  0.10245843  0.89139144  0.12934533    -0.73920
H1491       H  0.04354404  0.85393044  0.09599161     0.78070
H1492       H  0.09501580  0.90922427  0.19379041     0.79160
H1493       H  0.13817736  0.94644085  0.09785877     0.81390
H1494       H  0.05105616  0.94845431  0.12478844     0.78990
H1495       H  0.08212230  0.86366065  0.20300470     0.42030
H1496       H  0.13505594  0.89546381  0.18107121     0.41000
H1497       H  0.17278803  0.98430785  0.14708646     0.40680
H1498       H  0.15471189  0.99507592  0.10186362     0.38610
H1499       H  0.06880028  0.96627532  0.06475453     0.41740
H1500       H  0.02183232  0.93228889  0.08050259     0.36530
H1501       H  0.49132768  0.84714338  0.11641747     0.42640
H1502       H  0.02430585  0.81814189  0.12534493     0.39060
H1503       H  0.14193933  0.51218512  0.09784611     0.43980
H1504       H  0.99946040  0.90444252  0.06873497     0.42700
H1505       H  0.02419593  0.81574679  0.15685064     0.42840
H1506       H  0.16302393  0.92027365  0.18373059     0.43190
O1507       O  0.15080523  0.61983496  0.33014316    -0.75680
O1508       O  0.18839800  0.62113855  0.31756704    -0.54580
C1509       C  0.16982286  0.62638098  0.31452251     0.78050
O1510       O  0.16747272  0.62541669  0.46315204    -0.60280
O1511       O  0.13344508  0.58499946  0.46790966    -0.53310
C1512       C  0.14714810  0.60991246  0.47509145     0.70070
O1513       O  0.22965235  0.65516215  0.40439893    -0.74840
O1514       O  0.23444605  0.64085873  0.36147283    -0.55400
C1515       C  0.24219474  0.65796347  0.38258652     0.76070
O1516       O  0.09239418  0.57861545  0.39021761    -0.59980
O1517       O  0.09164962  0.55816929  0.42773963    -0.53100
C1518       C  0.08171806  0.56701117  0.41130672     0.72660
Zr1519     Zr  0.13276950  0.59328167  0.36716774     2.54710
O1520       O  0.12857128  0.63178183  0.37792201    -0.80550
O1521       O  0.09778930  0.57387141  0.33114706    -0.93960
Zr1522     Zr  0.19084884  0.62311782  0.42384995     2.64680
O1523       O  0.19387713  0.66572923  0.42879931    -0.98920
O1524       O  0.22338623  0.63601540  0.46146961    -0.80980
O1525       O  0.17842262  0.61952613  0.37680553    -0.84340
O1526       O  0.14529864  0.59844278  0.41384470    -2.19050
O1527       O  0.10715771  0.49689486  0.38020448    -0.67730
O1528       O  0.09199421  0.51587847  0.41104837    -0.52290
C1529       C  0.08868993  0.49729205  0.39294855     0.71040
O1530       O  0.23357649  0.57009260  0.38575125    -0.60630
O1531       O  0.23593064  0.59351445  0.35017673    -0.52610
C1532       C  0.24461650  0.58241116  0.36505152     0.72850
O1533       O  0.17424637  0.52973570  0.44865926    -0.72030
O1534       O  0.13585567  0.52818353  0.45838779    -0.50710
C1535       C  0.15307413  0.52121192  0.46165284     0.74230
O1536       O  0.17338459  0.53254455  0.32695467    -0.67360
O1537       O  0.18932247  0.56995884  0.30817439    -0.54560
C1538       C  0.17945831  0.54503305  0.30595620     0.72610
Zr1539     Zr  0.13917777  0.53018160  0.35514449     2.77540
O1540       O  0.13053632  0.98768533  0.33369709    -0.98110
O1541       O  0.10749882  0.52145866  0.31793926    -0.78930
Zr1542     Zr  0.19581936  0.55946098  0.41308504     2.70070
O1543       O  0.20352332  0.52279346  0.40765507    -0.80180
O1544       O  0.23029575  0.58236733  0.44941167    -0.99260
Zr1545     Zr  0.19723125  0.59750697  0.35151128     2.21500
Zr1546     Zr  0.13147246  0.55617133  0.42738595     2.11130
O1547       O  0.15051334  0.53377023  0.40253337    -2.47950
O1548       O  0.18444895  0.55543513  0.36559038    -0.79970
O1549       O  0.11944367  0.55127209  0.37972898    -0.72160
O1550       O  0.20970620  0.60136971  0.39919967    -2.33120
O1551       O  0.15130967  0.57165770  0.34109439    -2.29330
O1552       O  0.17730504  0.58149209  0.43875111    -0.73920
H1553       H  0.13655078  0.60664611  0.42313641     0.78070
H1554       H  0.22840892  0.61147869  0.40239386     0.79160
H1555       H  0.14486062  0.51668261  0.40804062     0.81390
H1556       H  0.14702589  0.57023163  0.32174610     0.78990
H1557       H  0.23901313  0.63778411  0.45254542     0.42030
H1558       H  0.22174792  0.58597896  0.46509544     0.41000
H1559       H  0.19153053  0.51116909  0.39192656     0.40680
H1560       H  0.13030322  0.97783829  0.34899392     0.38610
H1561       H  0.09234938  0.52048284  0.32726513     0.41740
H1562       H  0.10597375  0.57184800  0.31429987     0.36530
H1563       H  0.14664970  0.64622233  0.38263176     0.42640
H1564       H  0.17565715  0.66190678  0.42975173     0.39060
H1565       H  0.11232796  0.97862010  0.32589429     0.43980
H1566       H  0.09402794  0.58796190  0.32823769     0.42700
H1567       H  0.20196303  0.67363500  0.44749713     0.42840
H1568       H  0.23391966  0.56884637  0.45499819     0.43190
O1569       O  0.03863429  0.67917718  0.21124548    -0.75680
O1570       O  0.04735697  0.64896275  0.22591618    -0.54580
C1571       C  0.03469244  0.66144020  0.22704804     0.78050
O1572       O  0.02710932  0.65525043  0.08815913    -0.60280
O1573       O  0.06515077  0.67554618  0.06750908    -0.53310
C1574       C  0.04002853  0.66186436  0.06689673     0.70070
O1575       O  0.00752278  0.61369938  0.16171287    -0.74840
O1576       O  0.02811178  0.59960652  0.18784371    -0.55400
C1577       C  0.00789198  0.59568225  0.17375769     0.76070
O1578       O  0.08004962  0.73714588  0.14730737    -0.59980
O1579       O  0.09213344  0.73058304  0.10443439    -0.53100
C1580       C  0.08692097  0.74377368  0.12292900     0.72660
Zr1581     Zr  0.06988710  0.70114647  0.17598169     2.54710
O1582       O  0.03657128  0.71361572  0.17745915    -0.80550
O1583       O  0.09426095  0.73594768  0.21289387    -0.93960
Zr1584     Zr  0.03455176  0.63584098  0.12521289     2.64680
O1585       O  0.48808248  0.61908666  0.11609759    -0.98920
O1586       O  0.02346379  0.59679729  0.09398813    -0.80980
O1587       O  0.04525174  0.65488018  0.17110777    -0.84340
O1588       O  0.05848247  0.68247246  0.12951266    -2.19050
O1589       O  0.16175903  0.73334379  0.14657214    -0.67730
O1590       O  0.14150277  0.73133536  0.10601440    -0.52290
C1591       C  0.16128145  0.74228023  0.12364738     0.71040
O1592       O  0.09159160  0.59818622  0.14790773    -0.60630
O1593       O  0.07167022  0.59818839  0.18744791    -0.52610
C1594       C  0.08108809  0.58829503  0.16958257     0.72850
O1595       O  0.11443099  0.64340972  0.07933515    -0.72030
O1596       O  0.11365126  0.67881119  0.06637402    -0.50710
C1597       C  0.11714367  0.65903029  0.06187378     0.74230
O1598       O  0.14281115  0.67722254  0.21302050    -0.67360
O1599       O  0.10376639  0.64546757  0.22605435    -0.54560
C1600       C  0.12895907  0.65886632  0.22819978     0.72610
Zr1601     Zr  0.13495566  0.69836826  0.17525612     2.77540
O1602       O  0.17868506  0.70438712  0.17552039    -0.98110
O1603       O  0.14934554  0.73490430  0.21092328    -0.78930
Zr1604     Zr  0.10014319  0.63427333  0.12404996     2.70070
O1605       O  0.14232743  0.63674965  0.12626284    -0.80180
O1606       O  0.08010441  0.59329695  0.09391479    -0.99260
Zr1607     Zr  0.07086501  0.63916316  0.19104267     2.21500
Zr1608     Zr  0.09789379  0.69344971  0.10677537     2.11130
O1609       O  0.12516424  0.68022197  0.12825789    -2.47950
O1610       O  0.11096966  0.65219113  0.17023530    -0.79970
O1611       O  0.10897067  0.71267248  0.15378468    -0.72160
O1612       O  0.06016266  0.62060014  0.14443817    -2.33120
O1613       O  0.09551911  0.68616150  0.19755587    -2.29330
O1614       O  0.07331022  0.64712687  0.10261756    -0.73920
H1615       H  0.04905061  0.68992640  0.12172246     0.78070
H1616       H  0.05026658  0.60177692  0.14297637     0.79160
H1617       H  0.14101984  0.68561213  0.11886520     0.81390
H1618       H  0.09907124  0.69240434  0.21686918     0.78990
H1619       H  0.02218926  0.58337094  0.10536527     0.42030
H1620       H  0.07012918  0.59568472  0.07931935     0.41000
H1621       H  0.15056644  0.64650580  0.14438721     0.40680
H1622       H  0.18219311  0.70285698  0.15594258     0.38610
H1623       H  0.14450522  0.74680676  0.20316211     0.41740
H1624       H  0.08341568  0.73027857  0.22884039     0.36530
H1625       H  0.02220404  0.70002635  0.16470737     0.42640
H1626       H  0.48606020  0.63470218  0.11741346     0.39060
H1627       H  0.19039235  0.72304928  0.18224407     0.43980
H1628       H  0.09281756  0.75090148  0.20770339     0.42700
H1629       H  0.48431996  0.61215089  0.09644164     0.42840
H1630       H  0.09469758  0.59293050  0.08464522     0.43190
O1631       O  0.32425322  0.96538848  0.18917674    -0.75680
O1632       O  0.36175082  0.96591620  0.20154947    -0.54580
C1633       C  0.34493543  0.97348906  0.20502095     0.78050
O1634       O  0.27823440  0.83669040  0.11274170    -0.60280
O1635       O  0.26067175  0.85109559  0.08293615    -0.53310
C1636       C  0.25857095  0.83395211  0.09868863     0.70070
O1637       O  0.32742351  0.87022683  0.19044680    -0.74840
O1638       O  0.36111153  0.91118086  0.20454065    -0.55400
C1639       C  0.34646866  0.88675516  0.20735741     0.76070
O1640       O  0.26393177  0.92147333  0.11841494    -0.59980
O1641       O  0.26058814  0.89789921  0.07734298    -0.53100
C1642       C  0.25175408  0.90817533  0.09550615     0.72660
Zr1643     Zr  0.30402359  0.93642869  0.14627045     2.54710
O1644       O  0.26978356  0.92075386  0.17847023    -0.80550
O1645       O  0.30176064  0.97551740  0.14056042    -0.93960
Zr1646     Zr  0.30462645  0.87101158  0.14924902     2.64680
O1647       O  0.26823911  0.86560263  0.17625710    -0.98920
O1648       O  0.29161261  0.82750436  0.16130112    -0.80980
O1649       O  0.32009668  0.91403955  0.17062236    -0.84340
O1650       O  0.28777672  0.89296215  0.12571746    -2.19050
O1651       O  0.34382811  0.96199944  0.05546979    -0.67730
O1652       O  0.30853083  0.92219602  0.04027359    -0.52290
C1653       C  0.32573831  0.94640086  0.03746660     0.71040
O1654       O  0.40002613  0.90541769  0.13062956    -0.60630
O1655       O  0.40447929  0.93285591  0.16880578    -0.52610
C1656       C  0.41213071  0.91994828  0.15295524     0.72850
O1657       O  0.33092480  0.85610346  0.07065818    -0.72030
O1658       O  0.30979619  0.86856834  0.04307346    -0.50710
C1659       C  0.32253931  0.85658856  0.04679344     0.74230
O1660       O  0.40214084  0.99173938  0.12501594    -0.67360
O1661       O  0.40561731  0.97848469  0.16600561    -0.54560
C1662       C  0.41441694  0.99481940  0.14799011     0.72610
Zr1663     Zr  0.36236084  0.96023932  0.09808512     2.77540
O1664       O  0.39624230  0.97201659  0.06550255    -0.98110
O1665       O  0.36427473  0.00224855  0.10039030    -0.78930
Zr1666     Zr  0.36257529  0.89474428  0.10021370     2.70070
O1667       O  0.39299756  0.91504144  0.06520495    -0.80180
O1668       O  0.37800249  0.86368358  0.09317194    -0.99260
Zr1669     Zr  0.36600124  0.93653874  0.16643487     2.21500
Zr1670     Zr  0.29978257  0.89416202  0.07870348     2.11130
O1671       O  0.34631927  0.91713015  0.07622621    -2.47950
O1672       O  0.37924463  0.93805644  0.12066285    -0.79970
O1673       O  0.31640155  0.93794337  0.10018040    -0.72160
O1674       O  0.35046291  0.89269684  0.14615225    -2.33120
O1675       O  0.34974572  0.95961289  0.14347019    -2.29330
O1676       O  0.31680567  0.87203579  0.10317694    -0.73920
H1677       H  0.26906292  0.88329584  0.12632251     0.78070
H1678       H  0.35808671  0.88411220  0.15518191     0.79160
H1679       H  0.35073748  0.91744440  0.05731222     0.81390
H1680       H  0.35720244  0.97746358  0.15167843     0.78990
H1681       H  0.30417731  0.82317560  0.15259932     0.42030
H1682       H  0.36385285  0.84719316  0.09898287     0.41000
H1683       H  0.40931734  0.92844327  0.07563643     0.40680
H1684       H  0.38829763  0.95844052  0.04959766     0.38610
H1685       H  0.34582322  0.99783014  0.10021270     0.41740
H1686       H  0.31971783  0.99018791  0.14531566     0.36530
H1687       H  0.26574280  0.93499998  0.18191866     0.42640
H1688       H  0.25288240  0.85832251  0.16311587     0.39060
H1689       H  0.39811033  0.98796049  0.05860550     0.43980
H1690       H  0.29156166  0.97690374  0.15583365     0.42700
H1691       H  0.26470009  0.85116380  0.18725898     0.42840
H1692       H  0.37782811  0.86015186  0.07302351     0.43190
C1693       C  0.44004914  0.51928595  0.15418578    -0.06510
C1694       C  0.45108141  0.52719581  0.18133103    -0.17640
C1695       C  0.47346482  0.55166566  0.18855490     0.10690
C1696       C  0.48465258  0.56919699  0.16864627    -0.06430
C1697       C  0.47420936  0.56086451  0.14153259    -0.17670
C1698       C  0.45314399  0.53599908  0.13384908     0.10720
S1699       S  0.48600130  0.55989949  0.22355229    -0.32630
S1700       S  0.44560766  0.52669923  0.09746660    -0.32640
H1701       H  0.44240841  0.00169840  0.09871250     0.28730
H1702       H  0.98989524  0.58519939  0.22408580     0.28720
H1703       H  0.44191213  0.51461239  0.19723827     0.19320
H1704       H  0.48321909  0.57355887  0.12574588     0.19320
C1705       C  0.18538900  0.76672793  0.11715162    -0.06510
C1706       C  0.18925225  0.77328086  0.08989595    -0.17640
C1707       C  0.21248367  0.79503466  0.08275342     0.10690
C1708       C  0.23278861  0.81064005  0.10311462    -0.06430
C1709       C  0.22860480  0.80423349  0.13016535    -0.17670
C1710       C  0.20529524  0.78353644  0.13755011     0.10720
S1711       S  0.21535585  0.80099139  0.04730054    -0.32630
S1712       S  0.20205338  0.78125238  0.17384219    -0.32640
H1713       H  0.17696708  0.77823094  0.17288649     0.28730
H1714       H  0.24220605  0.81002130  0.04731177     0.28720
H1715       H  0.17433322  0.76106874  0.07382489     0.19320
H1716       H  0.24352252  0.81613406  0.14626156     0.19320
C1717       C  0.14268016  0.65145482  0.24869312    -0.06510
C1718       C  0.16469575  0.67048827  0.26548554    -0.17640
C1719       C  0.17618560  0.66338641  0.28612111     0.10690
C1720       C  0.16631491  0.63662665  0.28928792    -0.06430
C1721       C  0.14566306  0.61797789  0.27148322    -0.17670
C1722       C  0.13369838  0.62491522  0.25209259     0.10720
S1723       S  0.20227549  0.68922796  0.30848696    -0.32630
S1724       S  0.10708614  0.59827904  0.23207769    -0.32640
H1725       H  0.11880448  0.60923102  0.20829164     0.28730
H1726       H  0.21057868  0.67362927  0.31997093     0.28720
H1727       H  0.17222199  0.69098072  0.26344574     0.19320
H1728       H  0.13751809  0.59741543  0.27391502     0.19320
C1729       C  0.13845563  0.62279739  0.49686586    -0.06510
C1730       C  0.15487745  0.64988972  0.00525639    -0.17640
C1731       C  0.14744193  0.66375293  0.02427744     0.10690
C1732       C  0.12267200  0.65073140  0.03476600    -0.06430
C1733       C  0.10574025  0.62428675  0.02523777    -0.17670
C1734       C  0.11356301  0.61000239  0.00765047     0.10720
S1735       S  0.17112795  0.69720908  0.03613967    -0.32630
S1736       S  0.09177319  0.57518385  0.50287241    -0.32640
H1737       H  0.08764520  0.57473720  0.47475911     0.28730
H1738       H  0.15287231  0.70543349  0.04052515     0.28720
H1739       H  0.17408080  0.66044085  0.49752305     0.19320
H1740       H  0.08696162  0.61385712  0.03398217     0.19320
C1741       C  0.13325439  0.96336958  0.01932751    -0.06510
C1742       C  0.15352150  0.98952433  0.02588130    -0.17640
C1743       C  0.16072308  0.50844057  0.00749569     0.10690
C1744       C  0.14785912  0.50143253  0.48116581    -0.06430
C1745       C  0.12879223  0.97498432  0.47374304    -0.17670
C1746       C  0.12156204  0.95598245  0.49234601     0.10720
S1747       S  0.18405793  0.54178828  0.02040497    -0.32630
S1748       S  0.09581761  0.92323834  0.48133864    -0.32640
H1749       H  0.10715846  0.91124465  0.99505364     0.28730
H1750       H  0.19503236  0.54985556  0.99545654     0.28720
H1751       H  0.16247211  0.49587650  0.04657625     0.19320
H1752       H  0.11891530  0.96920341  0.45350464     0.19320
C1753       C  0.14198229  0.99127359  0.23386132    -0.06510
C1754       C  0.16243212  0.99091324  0.24818216    -0.17640
C1755       C  0.17646478  0.00933212  0.27087467     0.10690
C1756       C  0.17089116  0.52942703  0.27883307    -0.06430
C1757       C  0.15148484  0.53059724  0.26377725    -0.17670
C1758       C  0.13654255  0.51148414  0.24220309     0.10720
S1759       S  0.20080003  0.00586485  0.28924133    -0.32630
S1760       S  0.11037865  0.51388242  0.22695888    -0.32640
H1761       H  0.09111669  0.49146869  0.23774324     0.28730
H1762       H  0.21570132  0.03219083  0.30033019     0.28720
H1763       H  0.16695747  0.97566128  0.24224670     0.19320
H1764       H  0.14644981  0.54539341  0.27029764     0.19320
C1765       C  0.08507088  0.51910329  0.16828211    -0.06510
C1766       C  0.06213446  0.51834934  0.17675210    -0.17640
C1767       C  0.06010887  0.54089703  0.17870605     0.10690
C1768       C  0.08199122  0.56468014  0.17367736    -0.06430
C1769       C  0.10573850  0.56568260  0.16861895    -0.17670
C1770       C  0.10755128  0.54326172  0.16596445     0.10720
S1771       S  0.02873946  0.53754186  0.18479393    -0.32630
S1772       S  0.13898479  0.54681143  0.15923716    -0.32640
H1773       H  0.13502748  0.52469824  0.17138934     0.28730
H1774       H  0.03004712  0.55408394  0.16540490     0.28720
H1775       H  0.04514105  0.99987391  0.17978733     0.19320
H1776       H  0.12289715  0.58410950  0.16559537     0.19320
C1777       C  0.08961401  0.76870342  0.11571912    -0.06510
C1778       C  0.07690725  0.76902187  0.09147786    -0.17640
C1779       C  0.07676842  0.79172128  0.08550716     0.10690
C1780       C  0.09043405  0.81495060  0.10364317    -0.06430
C1781       C  0.10471669  0.81486608  0.12665077    -0.17670
C1782       C  0.10464989  0.79233855  0.13273617     0.10720
S1783       S  0.05745719  0.78914141  0.05563235    -0.32630
S1784       S  0.12400877  0.79506017  0.16273614    -0.32640
H1785       H  0.13081341  0.77666242  0.15186022     0.28730
H1786       H  0.04952620  0.80657106  0.06662018     0.28720
H1787       H  0.06577550  0.75109927  0.07790581     0.19320
H1788       H  0.11493485  0.83233776  0.14103475     0.19320
C1789       C  0.17632511  0.90085724  0.09600219    -0.06510
C1790       C  0.19050272  0.90882995  0.07252938    -0.17640
C1791       C  0.21472668  0.91002991  0.07041479     0.10690
C1792       C  0.22469549  0.90281532  0.09216099    -0.06430
C1793       C  0.20916381  0.89240866  0.11413439    -0.17670
C1794       C  0.18518505  0.89121930  0.11625983     0.10720
S1795       S  0.23221467  0.92223076  0.04037860    -0.32630
S1796       S  0.16631874  0.87770162  0.14528737    -0.32640
H1797       H  0.18231549  0.86923690  0.15650706     0.28730
H1798       H  0.25725872  0.93196035  0.05246455     0.28720
H1799       H  0.18355402  0.91579084  0.05665086     0.19320
H1800       H  0.21647770  0.88615333  0.13039336     0.19320
C1801       C  0.43759567  0.92319082  0.15953281    -0.06510
C1802       C  0.45897154  0.94380352  0.14896510    -0.17640
C1803       C  0.48288513  0.94476107  0.14820255     0.10690
C1804       C  0.48561336  0.92497975  0.15901512    -0.06430
C1805       C  0.46442436  0.90491524  0.17062008    -0.17670
C1806       C  0.44042066  0.90388773  0.17109810     0.10720
S1807       S  0.00768543  0.96970226  0.12990116    -0.32630
S1808       S  0.41368138  0.87651628  0.18467882    -0.32640
H1809       H  0.39962824  0.88923893  0.19176367     0.28730
H1810       H  0.02888518  0.96885879  0.14120437     0.28720
H1811       H  0.45647077  0.95821856  0.13940624     0.19320
H1812       H  0.46604688  0.88904827  0.17776021     0.19320
C1813       C  0.48254269  0.62343613  0.49991488    -0.06510
C1814       C  0.49753267  0.65114005  0.00366044    -0.17640
C1815       C  0.01773065  0.66472191  0.02419887     0.10690
C1816       C  0.02397428  0.65047532  0.04099628    -0.06430
C1817       C  0.00983239  0.62304062  0.03677112    -0.17670
C1818       C  0.48926134  0.60940715  0.01684653     0.10720
S1819       S  0.03394693  0.69997803  0.02829266    -0.32630
S1820       S  0.47157482  0.57431626  0.51571373    -0.32640
H1821       H  0.48029272  0.57060492  0.49002625     0.28730
H1822       H  0.04257249  0.70408823  0.05596989     0.28720
H1823       H  0.49332061  0.66259618  0.49079255     0.19320
H1824       H  0.01417720  0.61198741  0.05007453     0.19320
C1825       C  0.47422315  0.63218427  0.28626563    -0.06510
C1826       C  0.47940677  0.65484674  0.27437768    -0.17640
C1827       C  0.49808410  0.66469499  0.25419143     0.10690
C1828       C  0.01344751  0.65289383  0.24719308    -0.06430
C1829       C  0.00754157  0.63018535  0.25915947    -0.17670
C1830       C  0.48753817  0.61907688  0.27667128     0.10720
S1831       S  0.50162953  0.69244000  0.23877636    -0.32630
S1832       S  0.48016507  0.58758973  0.28596420    -0.32640
H1833       H  0.45336589  0.57793629  0.28671977     0.28730
H1834       H  0.99603414  0.67931401  0.21205960     0.28720
H1835       H  0.46934211  0.66515881  0.28110744     0.19320
H1836       H  0.01820042  0.62008754  0.25439454     0.19320
C1837       C  0.35384774  0.49749111  0.47484839    -0.06510
C1838       C  0.33356407  0.49659034  0.99029316    -0.17640
C1839       C  0.32140402  0.97806671  0.00922058     0.10690
C1840       C  0.32792870  0.95829610  0.01147198    -0.06430
C1841       C  0.34639717  0.95780581  0.99410939    -0.17670
C1842       C  0.35981434  0.97730794  0.47674449     0.10720
S1843       S  0.29891909  0.48198233  0.03094000    -0.32630
S1844       S  0.38522905  0.97579682  0.45847400    -0.32160
H1845       H  0.40504187  0.99646591  0.47608121     0.28730
H1846       H  0.30004885  0.96839296  0.05228602     0.28720
H1847       H  0.32842273  0.51160104  0.98911184     0.19320
H1848       H  0.35254030  0.94363176  0.99624444     0.19320
C1849       C  0.35017568  0.99364745  0.22839315    -0.06510
C1850       C  0.37349028  0.51781999  0.23011998    -0.17640
C1851       C  0.37948277  0.53745772  0.25192164     0.10690
C1852       C  0.36237707  0.53266145  0.27340364    -0.06430
C1853       C  0.33854807  0.00874095  0.27092454    -0.17670
C1854       C  0.33225126  0.98937435  0.24872352     0.10720
S1855       S  0.41002734  0.56742348  0.25198044    -0.32630
S1856       S  0.30235200  0.95834479  0.24775836    -0.32640
H1857       H  0.29254037  0.96455116  0.27150597     0.28730
H1858       H  0.39901246  0.58337804  0.25763747     0.28720
H1859       H  0.38717428  0.52144983  0.21429088     0.19320
H1860       H  0.32539220  0.00465207  0.28732058     0.19320
C1861       C  0.00962938  0.56556648  0.41909928    -0.06510
C1862       C  0.01151790  0.54796724  0.39946849    -0.17640
C1863       C  0.03434213  0.54674499  0.39784842     0.10690
C1864       C  0.05587023  0.56346598  0.41629242    -0.06430
C1865       C  0.05370603  0.58035304  0.43667658    -0.17670
C1866       C  0.03083561  0.58168580  0.43829346     0.10720
S1867       S  0.03566157  0.52519641  0.37025947    -0.32630
S1868       S  0.03125883  0.60593678  0.46375668    -0.32640
H1869       H  0.50720424  0.60339352  0.45626632     0.28730
H1870       H  0.05399759  0.52107027  0.38376900     0.28720
H1871       H  0.99558785  0.53614528  0.38421128     0.19320
H1872       H  0.07056227  0.59405837  0.45006907     0.19320
C1873       C  0.31655055  0.58385198  0.35358400    -0.06510
C1874       C  0.31684845  0.60730665  0.36131318    -0.17640
C1875       C  0.29355922  0.60763169  0.36420841     0.10690
C1876       C  0.26949607  0.58411591  0.35851147    -0.06430
C1877       C  0.26929840  0.56108106  0.34879757    -0.17670
C1878       C  0.29257873  0.56076683  0.34608151     0.10720
S1879       S  0.29594144  0.63809765  0.37760333    -0.32630
S1880       S  0.29057896  0.53013235  0.33421295    -0.32640
H1881       H  0.31561753  0.54116460  0.32415117     0.28730
H1882       H  0.27444352  0.62713666  0.39387943     0.28720
H1883       H  0.33522298  0.62498731  0.36750195     0.19320
H1884       H  0.25087711  0.54305689  0.34415585     0.19320
C1885       C  0.47288479  0.82990427  0.47949526    -0.06510
C1886       C  0.48729185  0.81719156  0.48272278    -0.17640
C1887       C  0.00883468  0.82770629  0.00225797     0.10690
C1888       C  0.01746352  0.85250964  0.01717730    -0.06430
C1889       C  0.00361537  0.86539289  0.01249748    -0.17670
C1890       C  0.48093895  0.85380470  0.49559605     0.10720
S1891       S  0.02381106  0.80841988  0.00735315    -0.32630
S1892       S  0.46337567  0.87118144  0.49469264    -0.32640
H1893       H  0.43886804  0.84847894  0.48908633     0.28730
H1894       H  0.04821331  0.82930597  0.01756052     0.28720
H1895       H  0.48207774  0.79934686  0.46967002     0.19320
H1896       H  0.00948727  0.88418930  0.02391203     0.19320
C1897       C  0.48300563  0.85365444  0.27266088    -0.06510
C1898       C  0.49019916  0.87794726  0.26358758    -0.17640
C1899       C  0.50758751  0.88800077  0.24344116     0.10690
C1900       C  0.01872297  0.87366045  0.23113322    -0.06430
C1901       C  0.01170580  0.84924967  0.23994626    -0.17670
C1902       C  0.49432008  0.83926103  0.26073822     0.10720
S1903       S  0.51258624  0.91836535  0.23322386    -0.32630
S1904       S  0.48743549  0.80817468  0.27066143    -0.32640
H1905       H  0.49788450  0.81875369  0.29768596     0.28730
H1906       H  0.00354850  0.90636962  0.20648609     0.28720
H1907       H  0.48211878  0.88966922  0.27212079     0.19320
H1908       H  0.02003663  0.83796079  0.23082307     0.19320
C1909       C  0.41321735  0.97581232  0.38991377    -0.06510
C1910       C  0.43784014  0.97855935  0.38675566    -0.17640
C1911       C  0.44027204  0.95881132  0.37189368     0.10690
C1912       C  0.41771660  0.93629260  0.36003255    -0.06430
C1913       C  0.39327844  0.93415536  0.36223101    -0.17670
C1914       C  0.39065092  0.95302734  0.37818376     0.10720
S1915       S  0.47189573  0.96169171  0.36925596    -0.32630
S1916       S  0.35795855  0.94721635  0.38218710    -0.32640
H1917       H  0.36422050  0.96774360  0.40289212     0.28730
H1918       H  0.48493097  0.98300660  0.38965439     0.28720
H1919       H  0.45511976  0.99668536  0.39458775     0.19320
H1920       H  0.37584680  0.91618066  0.35418686     0.19320
C1921       C  0.41403571  0.68351990  0.38443587    -0.06510
C1922       C  0.39893972  0.68538295  0.36349696    -0.17640
C1923       C  0.39487168  0.70663075  0.36418251     0.10690
C1924       C  0.40629059  0.72678753  0.38612633    -0.06430
C1925       C  0.42052281  0.72473494  0.40749414    -0.17670
C1926       C  0.42480661  0.70361898  0.40698780     0.10720
S1927       S  0.37479724  0.70688337  0.33652940    -0.32630
S1928       S  0.44576565  0.70445842  0.43458461    -0.32640
H1929       H  0.44547854  0.72421567  0.45249443     0.28730
H1930       H  0.36621077  0.72209189  0.35180545     0.28720
H1931       H  0.38990132  0.67003629  0.34655615     0.19320
H1932       H  0.42979764  0.74071444  0.42378769     0.19320
C1933       C  0.06249293  0.97559714  0.38450233    -0.06510
C1934       C  0.05808955  0.96495562  0.35680477    -0.17640
C1935       C  0.03472863  0.94294934  0.34714196     0.10690
C1936       C  0.01484256  0.93206877  0.36518108    -0.06430
C1937       C  0.01813444  0.94398759  0.39207554    -0.17670
C1938       C  0.04193530  0.96545241  0.40216976     0.10720
S1939       S  0.03187153  0.92937390  0.31205052    -0.32630
S1940       S  0.04512405  0.97767216  0.43782915    -0.32640
H1941       H  0.06966796  0.48011126  0.44281453     0.28730
H1942       H  0.01677201  0.90308312  0.31685738     0.28720
H1943       H  0.07325501  0.97337470  0.34261902     0.19320
H1944       H  0.00241243  0.93579297  0.40564335     0.19320
C1945       C  0.31607581  0.72913862  0.38729923    -0.06510
C1946       C  0.30744900  0.71221094  0.36284178    -0.17640
C1947       C  0.28338748  0.68926263  0.36016482     0.10690
C1948       C  0.26770129  0.68235819  0.38298702    -0.06430
C1949       C  0.27717838  0.69902021  0.40789243    -0.17670
C1950       C  0.30082700  0.72243292  0.41011451     0.10720
S1951       S  0.27413363  0.67062468  0.32679880    -0.32630
S1952       S  0.30955452  0.74347832  0.44198597    -0.32640
H1953       H  0.31853371  0.76673659  0.42974081     0.28730
H1954       H  0.25052640  0.67065564  0.32434996     0.28720
H1955       H  0.31921715  0.71746878  0.34519955     0.19320
H1956       H  0.26586405  0.69426976  0.42584794     0.19320
C1957       C  0.36171825  0.83383282  0.48568190    -0.06510
C1958       C  0.33695261  0.81465758  0.49280013    -0.17640
C1959       C  0.32277268  0.82108267  0.01215285     0.10690
C1960       C  0.33278557  0.84748448  0.02329908    -0.06430
C1961       C  0.35729933  0.86617712  0.01615225    -0.17670
C1962       C  0.37224357  0.85961793  0.49908077     0.10720
S1963       S  0.29199134  0.79500063  0.02115289    -0.32630
S1964       S  0.40492529  0.88574497  0.49528514    -0.32640
H1965       H  0.41459149  0.86968193  0.48499543     0.28730
H1966       H  0.28240031  0.81084236  0.03263585     0.28720
H1967       H  0.32821748  0.79494151  0.48260990     0.19320
H1968       H  0.36546969  0.88626085  0.02492100     0.19320
C1969       C  0.35283790  0.87616719  0.23044805    -0.06510
C1970       C  0.35631055  0.85453800  0.22444372    -0.17640
C1971       C  0.36348595  0.84412821  0.24506816     0.10690
C1972       C  0.36657067  0.85507821  0.27254606    -0.06430
C1973       C  0.36227296  0.87613275  0.27871128    -0.17670
C1974       C  0.35566580  0.88688858  0.25797628     0.10720
S1975       S  0.37012008  0.81817884  0.23469778    -0.32630
S1976       S  0.35005045  0.91352014  0.26779323    -0.32640
H1977       H  0.37103118  0.93129167  0.25373665     0.28730
H1978       H  0.36493593  0.80707478  0.25953147     0.28720
H1979       H  0.35423564  0.84619963  0.20333381     0.19320
H1980       H  0.36489269  0.88478754  0.29977395     0.19320
O1981       O  0.36245855  0.82842462  0.80764533    -0.75680
O1982       O  0.40244374  0.86240095  0.79999398    -0.54580
C1983       C  0.37780724  0.84786723  0.79462718     0.78050
O1984       O  0.37816197  0.84850553  0.94466872    -0.60280
O1985       O  0.37817516  0.81155097  0.95340564    -0.53310
C1986       C  0.37312671  0.83031975  0.95961642     0.70070
O1987       O  0.40667469  0.90012668  0.88047646    -0.74840
O1988       O  0.42732743  0.90434855  0.84071263    -0.55400
C1989       C  0.41708443  0.91187026  0.85964336     0.76070
O1990       O  0.34023099  0.76590842  0.86529175    -0.59980
O1991       O  0.35680994  0.76389109  0.90672500    -0.53100
C1992       C  0.33933472  0.75468582  0.88668801     0.72660
Zr1993     Zr  0.36665967  0.80575682  0.84526330     2.54710
O1994       O  0.32517308  0.80412136  0.85082169    -0.80550
O1995       O  0.34829202  0.77101026  0.80723495    -0.93960
Zr1996     Zr  0.39858647  0.86381573  0.90363863     2.64680
O1997       O  0.35847835  0.86566455  0.90328556    -0.98920
O1998       O  0.42029035  0.90255950  0.93682064    -0.80980
O1999       O  0.38983145  0.85126580  0.85614343    -0.84340
O2000       O  0.37392524  0.81814384  0.89358513    -2.19050
O2001       O  0.41690932  0.76246935  0.86237827    -0.67730
O2002       O  0.40276213  0.76289653  0.90564206    -0.52290
C2003       C  0.40830530  0.75221759  0.88463813     0.71040
O2004       O  0.49163889  0.88723605  0.86736351    -0.60630
O2005       O  0.47250766  0.90494356  0.84463762    -0.52610
C2006       C  0.49182868  0.90675932  0.85829200     0.72850
O2007       O  0.47173350  0.84041567  0.93606294    -0.72030
O2008       O  0.43247437  0.81112349  0.95105286    -0.50710
C2009       C  0.45771605  0.82555892  0.95357517     0.74230
O2010       O  0.45952177  0.82553844  0.80706883    -0.67360
O2011       O  0.45415173  0.85987501  0.80046864    -0.54560
C2012       C  0.46416690  0.84538759  0.79459816     0.72610
Zr2013     Zr  0.43158779  0.80332488  0.84352881     2.77540
O2014       O  0.46908260  0.79701420  0.84529751    -0.98110
O2015       O  0.41055331  0.77033085  0.80424225    -0.78930
Zr2016     Zr  0.46395491  0.86229467  0.90181014     2.70070
O2017       O  0.50953438  0.87669762  0.91304879    -0.80180
O2018       O  0.47592243  0.90047998  0.93457992    -0.99260
Zr2019     Zr  0.43082536  0.86573905  0.83727220     2.21500
Zr2020     Zr  0.39979336  0.80237284  0.91328495     2.11130
O2021       O  0.44010881  0.81616351  0.89163632    -2.47950
O2022       O  0.45651415  0.84899692  0.85420203    -0.79970
O2023       O  0.39185738  0.78977708  0.86459600    -0.72160
O2024       O  0.43958357  0.88003237  0.88519937    -2.33120
O2025       O  0.40671610  0.81986740  0.82444242    -2.29330
O2026       O  0.42420136  0.84847897  0.92348925    -0.73920
H2027       H  0.35736906  0.81139513  0.90184677     0.78070
H2028       H  0.44936066  0.89884964  0.88892924     0.79160
H2029       H  0.44917512  0.80789900  0.89836110     0.81390
H2030       H  0.40421125  0.81585041  0.80474029     0.78990
H2031       H  0.40872689  0.91012218  0.93720536     0.42030
H2032       H  0.46094211  0.89532573  0.94620012     0.41000
H2033       H  0.01323342  0.86493100  0.90070597     0.40680
H2034       H  0.46984051  0.79209817  0.86386694     0.38610
H2035       H  0.41533696  0.78020129  0.78805047     0.41740
H2036       H  0.36242135  0.77560310  0.79450220     0.36530
H2037       H  0.32993207  0.82261078  0.85534342     0.42640
H2038       H  0.34461440  0.84794081  0.90656196     0.39060
H2039       H  0.46373841  0.78084394  0.83285343     0.43980
H2040       H  0.33526940  0.77367474  0.79752529     0.42700
H2041       H  0.36013452  0.87693283  0.92025106     0.42840
H2042       H  0.49004068  0.90193797  0.94680874     0.43190
O2043       O  0.42353130  0.65510039  0.90576390    -0.75680
O2044       O  0.41015503  0.64443397  0.86049298    -0.54580
C2045       C  0.41638551  0.65965775  0.88324825     0.78050
O2046       O  0.48992621  0.58377288  0.89515937    -0.60280
O2047       O  0.46794516  0.55918907  0.92926887    -0.53310
C2048       C  0.48779457  0.57000240  0.91469224     0.70070
O2049       O  0.47167235  0.61876057  0.82946934    -0.74840
O2050       O  0.43660129  0.62130996  0.81445792    -0.55400
C2051       C  0.45970786  0.62424989  0.81176425     0.76070
O2052       O  0.45634982  0.62598820  0.96532441    -0.59980
O2053       O  0.45175150  0.58606627  0.96899961    -0.53100
C2054       C  0.46170706  0.61066794  0.97712850     0.72660
Zr2055     Zr  0.43194941  0.62375789  0.92446151     2.54710
O2056       O  0.47150645  0.66628842  0.93202460    -0.80550
O2057       O  0.41030091  0.63456928  0.96101389    -0.93960
Zr2058     Zr  0.46424699  0.59767202  0.87047028     2.64680
O2059       O  0.50454345  0.63914167  0.88140886    -0.98920
O2060       O  0.48515592  0.57785688  0.84324652    -0.80980
O2061       O  0.44337144  0.62268017  0.87813419    -0.84340
O2062       O  0.45468855  0.60087513  0.91624009    -2.19050
O2063       O  0.35562073  0.52726242  0.94340554    -0.67730
O2064       O  0.39339613  0.52892553  0.95666536    -0.52290
C2065       C  0.36855384  0.51941983  0.95734613     0.71040
O2066       O  0.36484458  0.53425273  0.82137994    -0.60630
O2067       O  0.38548377  0.57299085  0.80497516    -0.52610
C2068       C  0.37120544  0.54784807  0.80123138     0.72850
O2069       O  0.40246886  0.50306620  0.87243298    -0.72030
O2070       O  0.42253674  0.51563775  0.91543822    -0.50710
C2071       C  0.41240262  0.49960942  0.89357497     0.74230
O2072       O  0.33857408  0.56989264  0.88070349    -0.67360
O2073       O  0.36028845  0.59496620  0.84647474    -0.54560
C2074       C  0.34006016  0.58269800  0.86032002     0.72610
Zr2075     Zr  0.36481967  0.55897877  0.90929719     2.77540
O2076       O  0.32083853  0.52195242  0.89940543    -0.98110
O2077       O  0.35098168  0.57955066  0.94536930    -0.78930
Zr2078     Zr  0.39595030  0.53430491  0.85306604     2.70070
O2079       O  0.36083336  0.98982448  0.83955913    -0.80180
O2080       O  0.41635376  0.52625909  0.81334334    -0.99260
Zr2081     Zr  0.40379668  0.60054350  0.84946979     2.21500
Zr2082     Zr  0.42635390  0.55779093  0.92743525     2.11130
O2083       O  0.38625148  0.53510810  0.89959951    -2.47950
O2084       O  0.37445438  0.55784449  0.86230938    -0.79970
O2085       O  0.40408946  0.58136754  0.93771911    -0.72160
O2086       O  0.42544352  0.57614869  0.84148633    -2.33120
O2087       O  0.39270071  0.60162051  0.89669763    -2.29330
O2088       O  0.43546202  0.55494564  0.88051301    -0.73920
H2089       H  0.47130906  0.60929947  0.92651156     0.78070
H2090       H  0.42887344  0.57467549  0.82250570     0.79160
H2091       H  0.37560683  0.51725634  0.90349251     0.81390
H2092       H  0.38343719  0.61107771  0.89939206     0.78990
H2093       H  0.47191325  0.55901883  0.84029494     0.42030
H2094       H  0.42138684  0.51365009  0.81872917     0.41000
H2095       H  0.34670289  0.48765152  0.85157577     0.40680
H2096       H  0.32302640  0.50644224  0.89694465     0.38610
H2097       H  0.35760257  0.57687709  0.96264079     0.41740
H2098       H  0.39604658  0.63547383  0.95150705     0.36530
H2099       H  0.48517407  0.66340807  0.92383162     0.42640
H2100       H  0.50985467  0.63891404  0.90050931     0.39060
H2101       H  0.31217016  0.52050509  0.91684127     0.43980
H2102       H  0.42296003  0.65291872  0.96804871     0.42700
H2103       H  0.01748251  0.63733526  0.87022162     0.42840
H2104       H  0.40181549  0.51601591  0.79925656     0.43190
O2105       O  0.00551992  0.90807677  0.63004577    -0.75680
O2106       O  0.02778411  0.93233044  0.67011513    -0.54580
C2107       C  0.00777518  0.92152764  0.65292458     0.78050
O2108       O  0.07640148  0.84044931  0.62727669    -0.60280
O2109       O  0.09104992  0.85196235  0.58491825    -0.53310
C2110       C  0.08542937  0.83712083  0.60460037     0.70070
O2111       O  0.03814469  0.86653239  0.69138697    -0.74840
O2112       O  0.04907769  0.90806161  0.70733917    -0.55400
C2113       C  0.03664419  0.88334714  0.70868490     0.76070
O2114       O  0.02218305  0.86634391  0.56297150    -0.59980
O2115       O  0.05933751  0.87168618  0.54411749    -0.53100
C2116       C  0.03443919  0.86326050  0.54302558     0.72660
Zr2117     Zr  0.03259883  0.89600410  0.60344851     2.54710
O2118       O  0.48903220  0.85851755  0.60453030    -0.80550
O2119       O  0.01868041  0.91559016  0.57058719    -0.93960
Zr2120     Zr  0.06308523  0.86834413  0.65136654     2.64680
O2121       O  0.02280776  0.82634337  0.64322215    -0.98920
O2122       O  0.08028050  0.85278879  0.68565617    -0.80980
O2123       O  0.04063511  0.89142634  0.64910820    -0.84340
O2124       O  0.05395844  0.87146289  0.60506976    -2.19050
O2125       O  0.11591544  0.96312521  0.56127366    -0.67730
O2126       O  0.11442312  0.92495698  0.54575756    -0.52290
C2127       C  0.12015449  0.94890633  0.54330353     0.71040
O2128       O  0.14025582  0.96388834  0.69407732    -0.60630
O2129       O  0.10254650  0.96181101  0.70712766    -0.52610
C2130       C  0.12727674  0.97096376  0.71024519     0.72850
O2131       O  0.15490258  0.91676512  0.62493864    -0.72030
O2132       O  0.13621570  0.89793094  0.58182141    -0.50710
C2133       C  0.15429336  0.90542575  0.60100256     0.74230
O2134       O  0.09406642  0.99313086  0.63627782    -0.67360
O2135       O  0.07410142  0.97641014  0.67496907    -0.54560
C2136       C  0.08444998  0.99465067  0.65938728     0.72610
Zr2137     Zr  0.09996328  0.96172262  0.60590129     2.77540
O2138       O  0.14306104  0.00070740  0.61051764    -0.98110
O2139       O  0.08146685  0.98099399  0.57795946    -0.78930
Zr2140     Zr  0.13105489  0.93311120  0.65265240     2.70070
O2141       O  0.17512862  0.96935431  0.65016261    -0.80180
O2142       O  0.14457080  0.91448532  0.68699511    -0.99260
Zr2143     Zr  0.06961715  0.93407532  0.67073326     2.21500
Zr2144     Zr  0.09374635  0.89498649  0.58251893     2.11130
O2145       O  0.12198359  0.93766027  0.60673085    -2.47950
O2146       O  0.11018753  0.95792385  0.65093752    -0.79970
O2147       O  0.07202877  0.91963477  0.58169166    -0.72160
O2148       O  0.09162096  0.91022545  0.67478614    -2.33120
O2149       O  0.05982486  0.93854088  0.62530733    -2.29330
O2150       O  0.10245842  0.89139144  0.62934532    -0.73920
H2151       H  0.04354402  0.85393043  0.59599162     0.78070
H2152       H  0.09501580  0.90922428  0.69379040     0.79160
H2153       H  0.13817735  0.94644084  0.59785875     0.81390
H2154       H  0.05105615  0.94845431  0.62478843     0.78990
H2155       H  0.08212233  0.86366068  0.70300469     0.42030
H2156       H  0.13505593  0.89546383  0.68107124     0.41000
H2157       H  0.17278802  0.98430785  0.64708641     0.40680
H2158       H  0.15471187  0.99507592  0.60186357     0.38610
H2159       H  0.06880023  0.96627529  0.56475454     0.41740
H2160       H  0.02183226  0.93228885  0.58050260     0.36530
H2161       H  0.49132774  0.84714340  0.61641753     0.42640
H2162       H  0.02430584  0.81814189  0.62534495     0.39060
H2163       H  0.14193945  0.51218517  0.59784631     0.43980
H2164       H  0.99946034  0.90444247  0.56873499     0.42700
H2165       H  0.02419593  0.81574680  0.65685066     0.42840
H2166       H  0.16302394  0.92027367  0.68373058     0.43190
O2167       O  0.15080520  0.61983492  0.83014316    -0.75680
O2168       O  0.18839797  0.62113853  0.81756705    -0.54580
C2169       C  0.16982283  0.62638094  0.81452251     0.78050
O2170       O  0.16747271  0.62541669  0.96315205    -0.60280
O2171       O  0.13344507  0.58499945  0.96790968    -0.53310
C2172       C  0.14714809  0.60991246  0.97509146     0.70070
O2173       O  0.22965234  0.65516215  0.90439895    -0.74840
O2174       O  0.23444603  0.64085873  0.86147285    -0.55400
C2175       C  0.24219472  0.65796347  0.88258654     0.76070
O2176       O  0.09239417  0.57861543  0.89021764    -0.59980
O2177       O  0.09164961  0.55816928  0.92773966    -0.53100
C2178       C  0.08171804  0.56701116  0.91130675     0.72660
Zr2179     Zr  0.13276948  0.59328165  0.86716776     2.54710
O2180       O  0.12857126  0.63178181  0.87792202    -0.80550
O2181       O  0.09778927  0.57387138  0.83114708    -0.93960
Zr2182     Zr  0.19084883  0.62311782  0.92384996     2.64680
O2183       O  0.19387710  0.66572922  0.92879930    -0.98920
O2184       O  0.22338621  0.63601541  0.96146963    -0.80980
O2185       O  0.17842260  0.61952611  0.87680554    -0.84340
O2186       O  0.14529863  0.59844277  0.91384471    -2.19050
O2187       O  0.10715771  0.49689485  0.88020450    -0.67730
O2188       O  0.09199420  0.51587846  0.91104838    -0.52290
C2189       C  0.08868992  0.49729204  0.89294856     0.71040
O2190       O  0.23357649  0.57009261  0.88575127    -0.60630
O2191       O  0.23593064  0.59351445  0.85017675    -0.52610
C2192       C  0.24461649  0.58241116  0.86505154     0.72850
O2193       O  0.17424636  0.52973570  0.94865928    -0.72030
O2194       O  0.13585566  0.52818352  0.95838781    -0.50710
C2195       C  0.15307412  0.52121191  0.96165285     0.74230
O2196       O  0.17338459  0.53254454  0.82695470    -0.67360
O2197       O  0.18932247  0.56995883  0.80817442    -0.54560
C2198       C  0.17945831  0.54503303  0.80595623     0.72610
Zr2199     Zr  0.13917777  0.53018159  0.85514452     2.77540
O2200       O  0.13053632  0.98768534  0.83369706    -0.98110
O2201       O  0.10749882  0.52145863  0.81793927    -0.78930
Zr2202     Zr  0.19581936  0.55946098  0.91308506     2.70070
O2203       O  0.20352333  0.52279346  0.90765509    -0.80180
O2204       O  0.23029574  0.58236734  0.94941170    -0.99260
Zr2205     Zr  0.19723124  0.59750696  0.85151130     2.21500
Zr2206     Zr  0.13147245  0.55617132  0.92738597     2.11130
O2207       O  0.15051334  0.53377022  0.90253339    -2.47950
O2208       O  0.18444894  0.55543512  0.86559040    -0.79970
O2209       O  0.11944366  0.55127208  0.87972900    -0.72160
O2210       O  0.20970619  0.60136971  0.89919969    -2.33120
O2211       O  0.15130965  0.57165768  0.84109441    -2.29330
O2212       O  0.17730503  0.58149209  0.93875113    -0.73920
H2213       H  0.13655077  0.60664609  0.92313643     0.78070
H2214       H  0.22840891  0.61147869  0.90239388     0.79160
H2215       H  0.14486061  0.51668260  0.90804064     0.81390
H2216       H  0.14702588  0.57023161  0.82174612     0.78990
H2217       H  0.23901312  0.63778411  0.95254544     0.42030
H2218       H  0.22174791  0.58597898  0.96509546     0.41000
H2219       H  0.19153054  0.51116910  0.89192658     0.40680
H2220       H  0.13030328  0.97783833  0.84899388     0.38610
H2221       H  0.09234938  0.52048283  0.82726515     0.41740
H2222       H  0.10597371  0.57184795  0.81429990     0.36530
H2223       H  0.14664968  0.64622232  0.88263175     0.42640
H2224       H  0.17565713  0.66190677  0.92975173     0.39060
H2225       H  0.11232794  0.97862010  0.82589431     0.43980
H2226       H  0.09402792  0.58796188  0.82823769     0.42700
H2227       H  0.20196301  0.67363499  0.94749712     0.42840
H2228       H  0.23391965  0.56884637  0.95499824     0.43190
O2229       O  0.03863429  0.67917720  0.71124546    -0.75680
O2230       O  0.04735697  0.64896275  0.72591614    -0.54580
C2231       C  0.03469244  0.66144021  0.72704802     0.78050
O2232       O  0.02710933  0.65525045  0.58815910    -0.60280
O2233       O  0.06515079  0.67554619  0.56750907    -0.53310
C2234       C  0.04002855  0.66186438  0.56689671     0.70070
O2235       O  0.00752276  0.61369941  0.66171284    -0.74840
O2236       O  0.02811175  0.59960654  0.68784369    -0.55400
C2237       C  0.00789194  0.59568228  0.67375768     0.76070
O2238       O  0.08004964  0.73714589  0.64730735    -0.59980
O2239       O  0.09213347  0.73058305  0.60443438    -0.53100
C2240       C  0.08692099  0.74377368  0.62292898     0.72660
Zr2241     Zr  0.06988711  0.70114648  0.67598168     2.54710
O2242       O  0.03657130  0.71361573  0.67745912    -0.80550
O2243       O  0.09426098  0.73594770  0.71289384    -0.93960
Zr2244     Zr  0.03455175  0.63584099  0.62521287     2.64680
O2245       O  0.48808248  0.61908668  0.61609756    -0.98920
O2246       O  0.02346377  0.59679729  0.59398811    -0.80980
O2247       O  0.04525174  0.65488019  0.67110775    -0.84340
O2248       O  0.05848249  0.68247247  0.62951264    -2.19050
O2249       O  0.16175906  0.73334375  0.64657213    -0.67730
O2250       O  0.14150280  0.73133534  0.60601439    -0.52290
C2251       C  0.16128149  0.74228019  0.62364737     0.71040
O2252       O  0.09159157  0.59818620  0.64790772    -0.60630
O2253       O  0.07167020  0.59818838  0.68744790    -0.52610
C2254       C  0.08108806  0.58829501  0.66958257     0.72850
O2255       O  0.11443097  0.64340969  0.57933513    -0.72030
O2256       O  0.11365127  0.67881119  0.56637401    -0.50710
C2257       C  0.11714367  0.65903027  0.56187377     0.74230
O2258       O  0.14281113  0.67722251  0.71302049    -0.67360
O2259       O  0.10376636  0.64546755  0.72605434    -0.54560
C2260       C  0.12895903  0.65886628  0.72819977     0.72610
Zr2261     Zr  0.13495566  0.69836823  0.67525611     2.77540
O2262       O  0.17868504  0.70438704  0.67552038    -0.98110
O2263       O  0.14934556  0.73490428  0.71092325    -0.78930
Zr2264     Zr  0.10014316  0.63427330  0.62404994     2.70070
O2265       O  0.14232739  0.63674959  0.62626280    -0.80180
O2266       O  0.08010436  0.59329692  0.59391477    -0.99260
Zr2267     Zr  0.07086499  0.63916315  0.69104264     2.21500
Zr2268     Zr  0.09789381  0.69344971  0.60677536     2.11130
O2269       O  0.12516423  0.68022194  0.62825787    -2.47950
O2270       O  0.11096964  0.65219110  0.67023528    -0.79970
O2271       O  0.10897069  0.71267247  0.65378467    -0.72160
O2272       O  0.06016263  0.62060013  0.64443815    -2.33120
O2273       O  0.09551911  0.68616149  0.69755585    -2.29330
O2274       O  0.07331022  0.64712687  0.60261754    -0.73920
H2275       H  0.04905063  0.68992641  0.62172244     0.78070
H2276       H  0.05026654  0.60177690  0.64297635     0.79160
H2277       H  0.14101983  0.68561210  0.61886518     0.81390
H2278       H  0.09907124  0.69240433  0.71686916     0.78990
H2279       H  0.02218924  0.58337094  0.60536525     0.42030
H2280       H  0.07012914  0.59568471  0.57931932     0.41000
H2281       H  0.15056641  0.64650575  0.64438716     0.40680
H2282       H  0.18219310  0.70285693  0.65594257     0.38610
H2283       H  0.14450526  0.74680675  0.70316207     0.41740
H2284       H  0.08341574  0.73027855  0.72884039     0.36530
H2285       H  0.02220405  0.70002636  0.66470735     0.42640
H2286       H  0.48606021  0.63470220  0.61741343     0.39060
H2287       H  0.19039234  0.72304919  0.68224410     0.43980
H2288       H  0.09281753  0.75090147  0.70770340     0.42700
H2289       H  0.48431997  0.61215091  0.59644161     0.42840
H2290       H  0.09469752  0.59293046  0.58464520     0.43190
O2291       O  0.32425313  0.96538840  0.68917682    -0.75680
O2292       O  0.36175075  0.96591617  0.70154954    -0.54580
C2293       C  0.34493535  0.97348900  0.70502102     0.78050
O2294       O  0.27823447  0.83669038  0.61274163    -0.60280
O2295       O  0.26067177  0.85109556  0.58293613    -0.53310
C2296       C  0.25857100  0.83395207  0.59868859     0.70070
O2297       O  0.32742352  0.87022677  0.69044678    -0.74840
O2298       O  0.36111152  0.91118082  0.70454067    -0.55400
C2299       C  0.34646866  0.88675511  0.70735740     0.76070
O2300       O  0.26393169  0.92147321  0.61841499    -0.59980
O2301       O  0.26058811  0.89789916  0.57734301    -0.53100
C2302       C  0.25175402  0.90817524  0.59550619     0.72660
Zr2303     Zr  0.30402349  0.93642858  0.64627054     2.54710
O2304       O  0.26978347  0.92075357  0.67847033    -0.80550
O2305       O  0.30176035  0.97551721  0.64056064    -0.93960
Zr2306     Zr  0.30462648  0.87101152  0.64924899     2.64680
O2307       O  0.26823908  0.86560240  0.67625704    -0.98920
O2308       O  0.29161281  0.82750432  0.66130099    -0.80980
O2309       O  0.32009665  0.91403946  0.67062240    -0.84340
O2310       O  0.28777669  0.89296207  0.62571748    -2.19050
O2311       O  0.34382802  0.96199948  0.55546988    -0.67730
O2312       O  0.30853082  0.92219602  0.54027362    -0.52290
C2313       C  0.32573827  0.94640088  0.53746665     0.71040
O2314       O  0.40002618  0.90541782  0.63062956    -0.60630
O2315       O  0.40447931  0.93285600  0.66880580    -0.52610
C2316       C  0.41213074  0.91994840  0.65295525     0.72850
O2317       O  0.33092491  0.85610355  0.57065818    -0.72030
O2318       O  0.30979623  0.86856836  0.54307347    -0.50710
C2319       C  0.32253938  0.85658861  0.54679345     0.74230
O2320       O  0.40214074  0.99173944  0.62501605    -0.67360
O2321       O  0.40561725  0.97848473  0.66600570    -0.54560
C2322       C  0.41441685  0.99481946  0.64799020     0.72610
Zr2323     Zr  0.36236075  0.96023937  0.59808522     2.77540
O2324       O  0.39624222  0.97201678  0.56550264    -0.98110
O2325       O  0.36427450  0.00224854  0.60039050    -0.78930
Zr2326     Zr  0.36257535  0.89474440  0.60021370     2.70070
O2327       O  0.39299760  0.91504170  0.56520497    -0.80180
O2328       O  0.37800271  0.86368384  0.59317182    -0.99260
Zr2329     Zr  0.36600121  0.93653874  0.66643492     2.21500
Zr2330     Zr  0.29978256  0.89416202  0.57870350     2.11130
O2331       O  0.34631926  0.91713023  0.57622625    -2.47950
O2332       O  0.37924460  0.93805652  0.62066291    -0.79970
O2333       O  0.31640146  0.93794333  0.60018049    -0.72160
O2334       O  0.35046295  0.89269687  0.64615224    -2.33120
O2335       O  0.34974561  0.95961286  0.64347029    -2.29330
O2336       O  0.31680572  0.87203582  0.60317691    -0.73920
H2337       H  0.26906290  0.88329574  0.62632252     0.78070
H2338       H  0.35808677  0.88411224  0.65518190     0.79160
H2339       H  0.35073748  0.91744452  0.55731226     0.81390
H2340       H  0.35720231  0.97746354  0.65167854     0.78990
H2341       H  0.30417754  0.82317563  0.65259915     0.42030
H2342       H  0.36385311  0.84719338  0.59898274     0.41000
H2343       H  0.40931737  0.92844352  0.57563647     0.40680
H2344       H  0.38829758  0.95844071  0.54959775     0.38610
H2345       H  0.34582297  0.99783007  0.60021287     0.41740
H2346       H  0.31971754  0.99018776  0.64531581     0.36530
H2347       H  0.26574269  0.93499966  0.68191886     0.42640
H2348       H  0.25288237  0.85832227  0.66311580     0.39060
H2349       H  0.39811017  0.98796066  0.55860560     0.43980
H2350       H  0.29156142  0.97690351  0.65583393     0.42700
H2351       H  0.26470010  0.85116357  0.68725890     0.42840
H2352       H  0.37782831  0.86015215  0.57302339     0.43190
C2353       C  0.44004910  0.51928598  0.65418582    -0.06510
C2354       C  0.45108136  0.52719586  0.68133107    -0.17640
C2355       C  0.47346478  0.55166571  0.68855493     0.10690
C2356       C  0.48465255  0.56919702  0.66864629    -0.06430
C2357       C  0.47420932  0.56086452  0.64153261    -0.17670
C2358       C  0.45314395  0.53599909  0.63384911     0.10720
S2359       S  0.48600126  0.55989955  0.72355232    -0.32630
S2360       S  0.44560763  0.52669921  0.59746663    -0.32640
H2361       H  0.44240831  0.00169837  0.59871263     0.28730
H2362       H  0.98989527  0.58519957  0.72408580     0.28720
H2363       H  0.44191207  0.51461244  0.69723832     0.19320
H2364       H  0.48321906  0.57355887  0.62574589     0.19320
C2365       C  0.18538905  0.76672788  0.61715160    -0.06510
C2366       C  0.18925226  0.77328087  0.58989595    -0.17640
C2367       C  0.21248368  0.79503466  0.58275342     0.10690
C2368       C  0.23278867  0.81063999  0.60311458    -0.06430
C2369       C  0.22860492  0.80423335  0.63016529    -0.17670
C2370       C  0.20529536  0.78353631  0.63755007     0.10720
S2371       S  0.21535578  0.80099149  0.54730057    -0.32630
S2372       S  0.20205361  0.78125218  0.67384214    -0.32640
H2373       H  0.17696737  0.77823088  0.67288659     0.28730
H2374       H  0.24220596  0.81002130  0.54731169     0.28720
H2375       H  0.17433318  0.76106881  0.57382492     0.19320
H2376       H  0.24352269  0.81613386  0.64626148     0.19320
C2377       C  0.14268011  0.65145478  0.74869313    -0.06510
C2378       C  0.16469573  0.67048822  0.76548550    -0.17640
C2379       C  0.17618559  0.66338636  0.78612107     0.10690
C2380       C  0.16631486  0.63662661  0.78928792    -0.06430
C2381       C  0.14566297  0.61797785  0.77148326    -0.17670
C2382       C  0.13369829  0.62491518  0.75209264     0.10720
S2383       S  0.20227553  0.68922791  0.80848687    -0.32630
S2384       S  0.10708600  0.59827900  0.73207779    -0.32640
H2385       H  0.11880436  0.60923093  0.70829171     0.28730
H2386       H  0.21057869  0.67362921  0.81997085     0.28720
H2387       H  0.17222201  0.69098067  0.76344567     0.19320
H2388       H  0.13751797  0.59741539  0.77391509     0.19320
C2389       C  0.13845563  0.62279740  0.99686588    -0.06510
C2390       C  0.15487746  0.64988972  0.50525638    -0.17640
C2391       C  0.14744193  0.66375292  0.52427743     0.10690
C2392       C  0.12267201  0.65073139  0.53476598    -0.06430
C2393       C  0.10574025  0.62428674  0.52523775    -0.17670
C2394       C  0.11356302  0.61000238  0.50765045     0.10720
S2395       S  0.17112795  0.69720907  0.53613967    -0.32630
S2396       S  0.09177319  0.57518385  0.00287245    -0.32640
H2397       H  0.08764519  0.57473719  0.97475915     0.28730
H2398       H  0.15287231  0.70543349  0.54052513     0.28720
H2399       H  0.17408079  0.66044085  0.99752306     0.19320
H2400       H  0.08696162  0.61385711  0.53398214     0.19320
C2401       C  0.13325435  0.96336953  0.51932748    -0.06510
C2402       C  0.15352152  0.98952425  0.52588126    -0.17640
C2403       C  0.16072301  0.50844070  0.50749577     0.10690
C2404       C  0.14785909  0.50143248  0.98116579    -0.06430
C2405       C  0.12879233  0.97498431  0.97374302    -0.17670
C2406       C  0.12156216  0.95598246  0.99234601     0.10720
S2407       S  0.18405768  0.54178846  0.52040507    -0.32630
S2408       S  0.09581783  0.92323830  0.98133861    -0.32640
H2409       H  0.10715817  0.91124460  0.49505364     0.28730
H2410       H  0.19503210  0.54985582  0.49545665     0.28720
H2411       H  0.16247199  0.49587672  0.54657639     0.19320
H2412       H  0.11891545  0.96920336  0.95350459     0.19320
C2413       C  0.14198231  0.99127362  0.73386129    -0.06510
C2414       C  0.16243214  0.99091327  0.74818213    -0.17640
C2415       C  0.17646481  0.00933216  0.77087463     0.10690
C2416       C  0.17089116  0.52942701  0.77883310    -0.06430
C2417       C  0.15148483  0.53059721  0.76377730    -0.17670
C2418       C  0.13654254  0.51148410  0.74220314     0.10720
S2419       S  0.20080007  0.00586490  0.78924128    -0.32630
S2420       S  0.11037862  0.51388236  0.72695895    -0.32640
H2421       H  0.09111667  0.49146863  0.73774333     0.28730
H2422       H  0.21570135  0.03219087  0.80033016     0.28720
H2423       H  0.16695749  0.97566132  0.74224667     0.19320
H2424       H  0.14644979  0.54539338  0.77029768     0.19320
C2425       C  0.08507090  0.51910330  0.66828219    -0.06510
C2426       C  0.06213447  0.51834934  0.67675216    -0.17640
C2427       C  0.06010886  0.54089703  0.67870609     0.10690
C2428       C  0.08199120  0.56468014  0.67367738    -0.06430
C2429       C  0.10573849  0.56568261  0.66861899    -0.17670
C2430       C  0.10755128  0.54326174  0.66596452     0.10720
S2431       S  0.02873944  0.53754184  0.68479396    -0.32630
S2432       S  0.13898481  0.54681146  0.65923727    -0.32640
H2433       H  0.13502750  0.52469827  0.67138945     0.28730
H2434       H  0.03004710  0.55408392  0.66540493     0.28720
H2435       H  0.04514107  0.99987392  0.67978736     0.19320
H2436       H  0.12289714  0.58410951  0.66559541     0.19320
C2437       C  0.08961403  0.76870343  0.61571910    -0.06510
C2438       C  0.07690728  0.76902188  0.59147784    -0.17640
C2439       C  0.07676844  0.79172128  0.58550715     0.10690
C2440       C  0.09043405  0.81495059  0.60364318    -0.06430
C2441       C  0.10471668  0.81486607  0.62665078    -0.17670
C2442       C  0.10464989  0.79233855  0.63273617     0.10720
S2443       S  0.05745722  0.78914142  0.55563233    -0.32630
S2444       S  0.12400876  0.79506017  0.66273614    -0.32640
H2445       H  0.13081342  0.77666244  0.65186022     0.28730
H2446       H  0.04952620  0.80657105  0.56662017     0.28720
H2447       H  0.06577554  0.75109928  0.57790578     0.19320
H2448       H  0.11493481  0.83233775  0.64103477     0.19320
C2449       C  0.17632507  0.90085718  0.59600219    -0.06510
C2450       C  0.19050268  0.90882988  0.57252938    -0.17640
C2451       C  0.21472663  0.91002982  0.57041480     0.10690
C2452       C  0.22469544  0.90281523  0.59216101    -0.06430
C2453       C  0.20916375  0.89240858  0.61413441    -0.17670
C2454       C  0.18518500  0.89121925  0.61625984     0.10720
S2455       S  0.23221463  0.92223065  0.54037861    -0.32630
S2456       S  0.16631869  0.87770160  0.64528739    -0.32640
H2457       H  0.18231542  0.86923685  0.65650709     0.28730
H2458       H  0.25725868  0.93196032  0.55246461     0.28720
H2459       H  0.18355399  0.91579076  0.55665085     0.19320
H2460       H  0.21647763  0.88615326  0.63039339     0.19320
C2461       C  0.43759571  0.92319093  0.65953282    -0.06510
C2462       C  0.45897160  0.94380370  0.64896522    -0.17640
C2463       C  0.48288518  0.94476122  0.64820261     0.10690
C2464       C  0.48561337  0.92497983  0.65901505    -0.06430
C2465       C  0.46442435  0.90491525  0.67061990    -0.17670
C2466       C  0.44042066  0.90388776  0.67109796     0.10720
S2467       S  0.00768546  0.96970236  0.62990125    -0.32630
S2468       S  0.41368134  0.87651622  0.68467851    -0.32640
H2469       H  0.39962824  0.88923888  0.69176352     0.28730
H2470       H  0.02888520  0.96885881  0.64120436     0.28720
H2471       H  0.45647085  0.95821879  0.63940645     0.19320
H2472       H  0.46604682  0.88904821  0.67775990     0.19320
C2473       C  0.48254266  0.62343614  0.99991490    -0.06510
C2474       C  0.49753268  0.65114004  0.50366043    -0.17640
C2475       C  0.01773065  0.66472193  0.52419886     0.10690
C2476       C  0.02397431  0.65047533  0.54099625    -0.06430
C2477       C  0.00983244  0.62304064  0.53677109    -0.17670
C2478       C  0.48926138  0.60940715  0.51684650     0.10720
S2479       S  0.03394691  0.69997804  0.52829266    -0.32630
S2480       S  0.47157476  0.57431626  0.01571377    -0.32640
H2481       H  0.48029268  0.57060491  0.99002629     0.28730
H2482       H  0.04257255  0.70408825  0.55596986     0.28720
H2483       H  0.49332061  0.66259619  0.99079255     0.19320
H2484       H  0.01417726  0.61198743  0.55007449     0.19320
C2485       C  0.47422317  0.63218429  0.78626565    -0.06510
C2486       C  0.47940675  0.65484672  0.77437764    -0.17640
C2487       C  0.49808406  0.66469496  0.75419138     0.10690
C2488       C  0.01344753  0.65289386  0.74719308    -0.06430
C2489       C  0.00754169  0.63018544  0.75915957    -0.17670
C2490       C  0.48753823  0.61907693  0.77667133     0.10720
S2491       S  0.50162940  0.69243990  0.73877622    -0.32630
S2492       S  0.48016518  0.58758980  0.78596429    -0.32640
H2493       H  0.45336599  0.57793633  0.78671986     0.28730
H2494       H  0.99603400  0.67931373  0.71205939     0.28720
H2495       H  0.46934204  0.66515876  0.78110736     0.19320
H2496       H  0.01820058  0.62008767  0.75439469     0.19320
C2497       C  0.35384774  0.49749111  0.97484838    -0.06510
C2498       C  0.33356407  0.49659034  0.49029317    -0.17640
C2499       C  0.32140398  0.97806670  0.50922058     0.10690
C2500       C  0.32792869  0.95829612  0.51147202    -0.06430
C2501       C  0.34639720  0.95780584  0.49410948    -0.17670
C2502       C  0.35981431  0.97730791  0.97674440     0.10720
S2503       S  0.29891908  0.48198234  0.53093999    -0.32630
S2504       S  0.38522899  0.97579677  0.95847387    -0.32160
H2505       H  0.40504183  0.99646584  0.97608108     0.28730
H2506       H  0.30004877  0.96839297  0.55228599     0.28720
H2507       H  0.32842274  0.51160104  0.48911184     0.19320
H2508       H  0.35254034  0.94363181  0.49624456     0.19320
C2509       C  0.35017561  0.99364743  0.72839321    -0.06510
C2510       C  0.37349028  0.51781996  0.73012001    -0.17640
C2511       C  0.37948279  0.53745770  0.75192166     0.10690
C2512       C  0.36237707  0.53266146  0.77340364    -0.06430
C2513       C  0.33854802  0.00874101  0.77092455    -0.17670
C2514       C  0.33225119  0.98937439  0.74872355     0.10720
S2515       S  0.41002741  0.56742342  0.75198049    -0.32630
S2516       S  0.30235187  0.95834487  0.74775840    -0.32640
H2517       H  0.29254027  0.96455129  0.77150599     0.28730
H2518       H  0.39901258  0.58337803  0.75763749     0.28720
H2519       H  0.38717429  0.52144977  0.71429092     0.19320
H2520       H  0.32539215  0.00465218  0.78732058     0.19320
C2521       C  0.00962937  0.56556648  0.91909932    -0.06510
C2522       C  0.01151789  0.54796724  0.89946852    -0.17640
C2523       C  0.03434212  0.54674499  0.89784845     0.10690
C2524       C  0.05587022  0.56346597  0.91629245    -0.06430
C2525       C  0.05370602  0.58035303  0.93667662    -0.17670
C2526       C  0.03083560  0.58168578  0.93829350     0.10720
S2527       S  0.03566156  0.52519642  0.87025949    -0.32630
S2528       S  0.03125881  0.60593675  0.96375674    -0.32640
H2529       H  0.50720424  0.60339351  0.95626636     0.28730
H2530       H  0.05399757  0.52107027  0.88376900     0.28720
H2531       H  0.99558784  0.53614529  0.88421130     0.19320
H2532       H  0.07056225  0.59405835  0.95006911     0.19320
C2533       C  0.31655055  0.58385199  0.85358399    -0.06510
C2534       C  0.31684844  0.60730666  0.86131316    -0.17640
C2535       C  0.29355921  0.60763170  0.86420841     0.10690
C2536       C  0.26949606  0.58411591  0.85851148    -0.06430
C2537       C  0.26929839  0.56108106  0.84879759    -0.17670
C2538       C  0.29257872  0.56076683  0.84608152     0.10720
S2539       S  0.29594143  0.63809766  0.87760331    -0.32630
S2540       S  0.29057895  0.53013235  0.83421297    -0.32640
H2541       H  0.31561752  0.54116460  0.82415118     0.28730
H2542       H  0.27444352  0.62713667  0.89387942     0.28720
H2543       H  0.33522297  0.62498732  0.86750192     0.19320
H2544       H  0.25087711  0.54305689  0.84415589     0.19320
C2545       C  0.47288474  0.82990430  0.97949535    -0.06510
C2546       C  0.48729178  0.81719156  0.98272284    -0.17640
C2547       C  0.00883468  0.82770628  0.50225796     0.10690
C2548       C  0.01746350  0.85250962  0.51717730    -0.06430
C2549       C  0.00361534  0.86539286  0.51249747    -0.17670
C2550       C  0.48093893  0.85380473  0.99559614     0.10720
S2551       S  0.02381107  0.80841987  0.50735315    -0.32630
S2552       S  0.46337570  0.87118152  0.99469274    -0.32640
H2553       H  0.43886805  0.84847904  0.98908637     0.28730
H2554       H  0.04821332  0.82930597  0.51756050     0.28720
H2555       H  0.48207765  0.79934685  0.96967008     0.19320
H2556       H  0.00948723  0.88418927  0.52391203     0.19320
C2557       C  0.48300563  0.85365441  0.77266090    -0.06510
C2558       C  0.49019898  0.87794712  0.76358743    -0.17640
C2559       C  0.50758730  0.88800061  0.74344097     0.10690
C2560       C  0.01872298  0.87366045  0.73113323    -0.06430
C2561       C  0.01170590  0.84924973  0.73994634    -0.17670
C2562       C  0.49432023  0.83926109  0.76073839     0.10720
S2563       S  0.51258572  0.91836499  0.73322338    -0.32630
S2564       S  0.48743592  0.80817491  0.77066185    -0.32640
H2565       H  0.49788480  0.81875410  0.79768638     0.28730
H2566       H  0.00354845  0.90636942  0.70648589     0.28720
H2567       H  0.48211847  0.88966901  0.77212050     0.19320
H2568       H  0.02003679  0.83796088  0.73082322     0.19320
C2569       C  0.41321732  0.97581232  0.88991371    -0.06510
C2570       C  0.43784010  0.97855933  0.88675561    -0.17640
C2571       C  0.44027199  0.95881129  0.87189363     0.10690
C2572       C  0.41771654  0.93629257  0.86003251    -0.06430
C2573       C  0.39327839  0.93415534  0.86223096    -0.17670
C2574       C  0.39065087  0.95302734  0.87818369     0.10720
S2575       S  0.47189567  0.96169167  0.86925591    -0.32630
S2576       S  0.35795851  0.94721637  0.88218701    -0.32640
H2577       H  0.36422046  0.96774364  0.90289201     0.28730
H2578       H  0.48493092  0.98300656  0.88965433     0.28720
H2579       H  0.45511972  0.99668534  0.89458769     0.19320
H2580       H  0.37584675  0.91618065  0.85418681     0.19320
C2581       C  0.41403573  0.68351993  0.88443588    -0.06510
C2582       C  0.39893964  0.68538293  0.86349704    -0.17640
C2583       C  0.39487160  0.70663073  0.86418262     0.10690
C2584       C  0.40629060  0.72678755  0.88612640    -0.06430
C2585       C  0.42052293  0.72473501  0.90749413    -0.17670
C2586       C  0.42480674  0.70361905  0.90698775     0.10720
S2587       S  0.37479705  0.70688331  0.83652960    -0.32630
S2588       S  0.44576595  0.70445857  0.93458442    -0.32640
H2589       H  0.44547895  0.72421587  0.95249425     0.28730
H2590       H  0.36621067  0.72209190  0.85180568     0.28720
H2591       H  0.38990117  0.67003623  0.84655627     0.19320
H2592       H  0.42979783  0.74071454  0.92378764     0.19320
C2593       C  0.06249294  0.97559715  0.88450230    -0.06510
C2594       C  0.05808953  0.96495564  0.85680473    -0.17640
C2595       C  0.03472860  0.94294936  0.84714194     0.10690
C2596       C  0.01484255  0.93206878  0.86518107    -0.06430
C2597       C  0.01813445  0.94398759  0.89207554    -0.17670
C2598       C  0.04193531  0.96545240  0.90216975     0.10720
S2599       S  0.03187147  0.92937395  0.81205047    -0.32630
S2600       S  0.04512409  0.97767214  0.93782915    -0.32640
H2601       H  0.06966791  0.48011125  0.94281454     0.28730
H2602       H  0.01677195  0.90308317  0.81685731     0.28720
H2603       H  0.07325498  0.97337473  0.84261897     0.19320
H2604       H  0.00241246  0.93579296  0.90564336     0.19320
C2605       C  0.31607581  0.72913861  0.88729925    -0.06510
C2606       C  0.30744900  0.71221091  0.86284180    -0.17640
C2607       C  0.28338748  0.68926261  0.86016484     0.10690
C2608       C  0.26770128  0.68235818  0.88298703    -0.06430
C2609       C  0.27717836  0.69902021  0.90789244    -0.17670
C2610       C  0.30082699  0.72243292  0.91011452     0.10720
S2611       S  0.27413364  0.67062465  0.82679883    -0.32630
S2612       S  0.30955449  0.74347833  0.94198597    -0.32640
H2613       H  0.31853369  0.76673660  0.92974080     0.28730
H2614       H  0.25052642  0.67065562  0.82434996     0.28720
H2615       H  0.31921716  0.71746875  0.84519958     0.19320
H2616       H  0.26586402  0.69426977  0.92584794     0.19320
C2617       C  0.36171823  0.83383283  0.98568191    -0.06510
C2618       C  0.33695262  0.81465756  0.99280018    -0.17640
C2619       C  0.32277268  0.82108272  0.51215280     0.10690
C2620       C  0.33278563  0.84748452  0.52329908    -0.06430
C2621       C  0.35729943  0.86617713  0.51615231    -0.17670
C2622       C  0.37224350  0.85961794  0.99908074     0.10720
S2623       S  0.29199129  0.79500072  0.52115277    -0.32630
S2624       S  0.40492519  0.88574502  0.99528508    -0.32640
H2625       H  0.41459145  0.86968200  0.98499546     0.28730
H2626       H  0.28240031  0.81084248  0.53263577     0.28720
H2627       H  0.32821753  0.79494147  0.98260999     0.19320
H2628       H  0.36546984  0.88626085  0.52492110     0.19320
C2629       C  0.35283790  0.87616713  0.73044804    -0.06510
C2630       C  0.35631088  0.85453816  0.72444365    -0.17640
C2631       C  0.36348628  0.84412836  0.74506808     0.10690
C2632       C  0.36657065  0.85507813  0.77254603    -0.06430
C2633       C  0.36227259  0.87613243  0.77871130    -0.17670
C2634       C  0.35566543  0.88688827  0.75797631     0.10720
S2635       S  0.37012082  0.81817929  0.73469769    -0.32630
S2636       S  0.35004959  0.91351951  0.76779332    -0.32640
H2637       H  0.37103010  0.93129126  0.75373667     0.28730
H2638       H  0.36493651  0.80707503  0.75953126     0.28720
H2639       H  0.35423619  0.84619995  0.70333371     0.19320
H2640       H  0.36489204  0.88478703  0.79977402     0.19320
O2641       O  0.86245662  0.32842375  0.30764628    -0.75680
O2642       O  0.90244157  0.36239982  0.29999388    -0.54580
C2643       C  0.87780501  0.34786617  0.29462771     0.78050
O2644       O  0.87816037  0.34850406  0.44466902    -0.60280
O2645       O  0.87817556  0.31155055  0.45340625    -0.53310
C2646       C  0.87312608  0.33031864  0.45961689     0.70070
O2647       O  0.90666825  0.40012343  0.38047491    -0.74840
O2648       O  0.92732196  0.40434632  0.34071161    -0.55400
C2649       C  0.91707736  0.41186687  0.35964154     0.76070
O2650       O  0.84023160  0.26590739  0.36529239    -0.59980
O2651       O  0.85681110  0.26389072  0.40672561    -0.53100
C2652       C  0.83933588  0.25468498  0.38668862     0.72660
Zr2653     Zr  0.86665880  0.30575601  0.34526388     2.54710
O2654       O  0.82517171  0.30411927  0.35082309    -0.80550
O2655       O  0.84829126  0.27100956  0.30723543    -0.93960
Zr2656     Zr  0.89858502  0.36381508  0.40363923     2.64680
O2657       O  0.85847762  0.36566532  0.40329025    -0.98920
O2658       O  0.92029150  0.40255911  0.43682064    -0.80980
O2659       O  0.88982974  0.35126485  0.35614409    -0.84340
O2660       O  0.87392463  0.31814312  0.39358574    -2.19050
O2661       O  0.91690994  0.26247009  0.36237755    -0.67730
O2662       O  0.90276275  0.26289686  0.40564135    -0.52290
C2663       C  0.90830585  0.25221802  0.38463724     0.71040
O2664       O  0.99163769  0.38723851  0.36736317    -0.60630
O2665       O  0.97250478  0.40494469  0.34463774    -0.52610
C2666       C  0.99182643  0.40676128  0.35829166     0.72850
O2667       O  0.97173381  0.34041898  0.43606401    -0.72030
O2668       O  0.93247530  0.31112367  0.45105259    -0.50710
C2669       C  0.95771682  0.32556056  0.45357534     0.74230
O2670       O  0.95952111  0.32553974  0.30706864    -0.67360
O2671       O  0.95415049  0.35987601  0.30046859    -0.54560
C2672       C  0.96416587  0.34538878  0.29459798     0.72610
Zr2673     Zr  0.93158791  0.30332585  0.34352884     2.77540
O2674       O  0.96908352  0.29701647  0.34529788    -0.98110
O2675       O  0.91055426  0.27033182  0.30424212    -0.78930
Zr2676     Zr  0.96395443  0.36229608  0.40180965     2.70070
O2677       O  0.00953380  0.37669709  0.41304596    -0.80180
O2678       O  0.97592348  0.40048218  0.43457872    -0.99260
Zr2679     Zr  0.93082348  0.36573897  0.33727223     2.21500
Zr2680     Zr  0.89979390  0.30237315  0.41328522     2.11130
O2681       O  0.94010934  0.31616486  0.39163628    -2.47950
O2682       O  0.95651338  0.34899797  0.35420168    -0.79970
O2683       O  0.89185759  0.28977732  0.36459633    -0.72160
O2684       O  0.93958192  0.38003284  0.38519932    -2.33120
O2685       O  0.90671512  0.31986729  0.32444263    -2.29330
O2686       O  0.92420104  0.34847938  0.42348940    -0.73920
H2687       H  0.85736849  0.31139404  0.40184752     0.78070
H2688       H  0.94935830  0.39885013  0.38892902     0.79160
H2689       H  0.94917627  0.30790104  0.39836122     0.81390
H2690       H  0.90421016  0.31585023  0.30474051     0.78990
H2691       H  0.90872959  0.41012356  0.43720470     0.42030
H2692       H  0.96094400  0.39532791  0.44620017     0.41000
H2693       H  0.51323161  0.36492981  0.40070258     0.40680
H2694       H  0.96984110  0.29209982  0.36386708     0.38610
H2695       H  0.91533695  0.28020240  0.28805044     0.41740
H2696       H  0.86242053  0.27560260  0.29450257     0.36530
H2697       H  0.82993051  0.32260822  0.35534883     0.42640
H2698       H  0.84461338  0.34794131  0.40656549     0.39060
H2699       H  0.96374004  0.28084670  0.33285325     0.43980
H2700       H  0.83526844  0.27367387  0.29752594     0.42700
H2701       H  0.86013444  0.37693253  0.42025692     0.42840
H2702       H  0.99004272  0.40194078  0.44680641     0.43190
O2703       O  0.92353041  0.15509997  0.40576480    -0.75680
O2704       O  0.91015522  0.14443357  0.36049366    -0.54580
C2705       C  0.91638489  0.15965724  0.38324897     0.78050
O2706       O  0.98993078  0.08377830  0.39516283    -0.60280
O2707       O  0.96794970  0.05919344  0.42927165    -0.53310
C2708       C  0.98779923  0.07000749  0.41469534     0.70070
O2709       O  0.97167553  0.11876356  0.32947149    -0.74840
O2710       O  0.93660333  0.12131043  0.31445886    -0.55400
C2711       C  0.95971035  0.12425140  0.31176568     0.76070
O2712       O  0.95634961  0.12598976  0.46532699    -0.59980
O2713       O  0.95175296  0.08606855  0.46900230    -0.53100
C2714       C  0.96170753  0.11067003  0.47713125     0.72660
Zr2715     Zr  0.93194914  0.12375838  0.42446349     2.54710
O2716       O  0.97150411  0.16629038  0.43202948    -0.80550
O2717       O  0.91029699  0.13456637  0.46101440    -0.93960
Zr2718     Zr  0.96425104  0.09767673  0.37047362     2.64680
O2719       O  0.00454468  0.13914857  0.38141459    -0.98920
O2720       O  0.98516561  0.07786657  0.34325187    -0.80980
O2721       O  0.94337271  0.12268225  0.37813651    -0.84340
O2722       O  0.95469085  0.10087813  0.41624304    -2.19050
O2723       O  0.85562327  0.02726161  0.44340532    -0.67730
O2724       O  0.89339929  0.02892662  0.45666644    -0.52290
C2725       C  0.86855680  0.01941995  0.45734654     0.71040
O2726       O  0.86485025  0.03425056  0.32137919    -0.60630
O2727       O  0.88548623  0.07299014  0.30497628    -0.52610
C2728       C  0.87120926  0.04784718  0.30123166     0.72850
O2729       O  0.90248060  0.00307137  0.37243476    -0.72030
O2730       O  0.92254342  0.01564125  0.41544230    -0.50710
C2731       C  0.91241251  0.99961405  0.39357786     0.74230
O2732       O  0.83857538  0.06989048  0.38070317    -0.67360
O2733       O  0.86028989  0.09496490  0.34647504    -0.54560
C2734       C  0.84006144  0.08269611  0.36031994     0.72610
Zr2735     Zr  0.86482158  0.05897710  0.40929651     2.77540
O2736       O  0.82084288  0.02194753  0.39940048    -0.98110
O2737       O  0.85097875  0.07954519  0.44536760    -0.78930
Zr2738     Zr  0.89595680  0.03430683  0.35306744     2.70070
O2739       O  0.86082511  0.48982376  0.33955576    -0.80180
O2740       O  0.91636148  0.02626268  0.31334491    -0.99260
Zr2741     Zr  0.90379874  0.10054368  0.34947070     2.21500
Zr2742     Zr  0.92635753  0.05779326  0.42743736     2.11130
O2743       O  0.88625604  0.03510878  0.39960026    -2.47950
O2744       O  0.87445812  0.05784394  0.36230934    -0.79970
O2745       O  0.90409042  0.08136736  0.43772002    -0.72160
O2746       O  0.92544824  0.07615138  0.34148854    -2.33120
O2747       O  0.89270136  0.10161955  0.39669809    -2.29330
O2748       O  0.93546774  0.05494963  0.38051564    -0.73920
H2749       H  0.97131115  0.10930312  0.42651498     0.78070
H2750       H  0.92887851  0.07467834  0.32250830     0.79160
H2751       H  0.87561215  0.01725684  0.40349301     0.81390
H2752       H  0.88343707  0.11107598  0.39939218     0.78990
H2753       H  0.97192457  0.05902803  0.34029937     0.42030
H2754       H  0.92139589  0.01365470  0.31873091     0.41000
H2755       H  0.84671045  0.98765239  0.35157807     0.40680
H2756       H  0.82303301  0.00643869  0.39694076     0.38610
H2757       H  0.85760359  0.07687621  0.46263932     0.41740
H2758       H  0.89604359  0.13547176  0.45150659     0.36530
H2759       H  0.98517229  0.16341246  0.42383400     0.42640
H2760       H  0.00985641  0.13892019  0.40051458     0.39060
H2761       H  0.81217250  0.02049880  0.41683515     0.43980
H2762       H  0.92295558  0.15291536  0.46805131     0.42700
H2763       H  0.51748473  0.13734502  0.37022657     0.42840
H2764       H  0.90182335  0.01601862  0.29925817     0.43190
O2765       O  0.50551962  0.40807681  0.13004573    -0.75680
O2766       O  0.52778379  0.43233076  0.17011499    -0.54580
C2767       C  0.50777482  0.42152774  0.15292449     0.78050
O2768       O  0.57640198  0.34045006  0.12727817    -0.60280
O2769       O  0.59105049  0.35196285  0.08491969    -0.53310
C2770       C  0.58543007  0.33712153  0.10460202     0.70070
O2771       O  0.53814405  0.36653336  0.19138725    -0.74840
O2772       O  0.54907712  0.40806262  0.20733929    -0.55400
C2773       C  0.53664347  0.38334817  0.20868502     0.76070
O2774       O  0.52218322  0.36634365  0.06297187    -0.59980
O2775       O  0.55933792  0.37168640  0.04411801    -0.53100
C2776       C  0.53443957  0.36326051  0.04302600     0.72660
Zr2777     Zr  0.53259879  0.39600437  0.10344853     2.54710
O2778       O  0.98903192  0.35851799  0.10452984    -0.80550
O2779       O  0.51868080  0.41559055  0.07058693    -0.93960
Zr2780     Zr  0.56308502  0.36834468  0.15136722     2.64680
O2781       O  0.52280766  0.32634385  0.14322249    -0.98920
O2782       O  0.58027966  0.35278940  0.18565754    -0.80980
O2783       O  0.54063493  0.39142685  0.14910835    -0.84340
O2784       O  0.55395846  0.37146322  0.10507027    -2.19050
O2785       O  0.61591516  0.46312545  0.06127376    -0.67730
O2786       O  0.61442302  0.42495724  0.04575797    -0.52290
C2787       C  0.62015419  0.44890652  0.04330370     0.71040
O2788       O  0.64025548  0.46388896  0.19407780    -0.60630
O2789       O  0.60254606  0.46181161  0.20712779    -0.52610
C2790       C  0.62727630  0.47096440  0.21024549     0.72850
O2791       O  0.65490270  0.41676577  0.12493930    -0.72030
O2792       O  0.63621591  0.39793159  0.08182202    -0.50710
C2793       C  0.65429356  0.40542647  0.10100318     0.74230
O2794       O  0.59406642  0.49313139  0.13627773    -0.67360
O2795       O  0.57410117  0.47641067  0.17496886    -0.54560
C2796       C  0.58444985  0.49465121  0.15938711     0.72610
Zr2797     Zr  0.59996328  0.46172299  0.10590148     2.77540
O2798       O  0.64306121  0.50070754  0.11051788    -0.98110
O2799       O  0.58146719  0.48099462  0.07795959    -0.78930
Zr2800     Zr  0.63105477  0.43311169  0.15265302     2.70070
O2801       O  0.67512865  0.46935471  0.15016377    -0.80180
O2802       O  0.64457025  0.41448546  0.18699571    -0.99260
Zr2803     Zr  0.56961691  0.43407589  0.17073329     2.21500
Zr2804     Zr  0.59374648  0.39498681  0.08251957     2.11130
O2805       O  0.62198363  0.43766067  0.10673136    -2.47950
O2806       O  0.61018742  0.45792435  0.15093779    -0.79970
O2807       O  0.57202889  0.41963504  0.08169192    -0.72160
O2808       O  0.59162072  0.41022607  0.17478666    -2.33120
O2809       O  0.55982472  0.43854126  0.12530726    -2.29330
O2810       O  0.60245830  0.39139189  0.12934609    -0.73920
H2811       H  0.54354414  0.35393071  0.09599223     0.78070
H2812       H  0.59501547  0.40922500  0.19379098     0.79160
H2813       H  0.63817740  0.44644122  0.09785928     0.81390
H2814       H  0.55105598  0.44845466  0.12478825     0.78990
H2815       H  0.58212131  0.36366138  0.20300593     0.42030
H2816       H  0.63505545  0.39546401  0.18107162     0.41000
H2817       H  0.67278812  0.48430812  0.14708663     0.40680
H2818       H  0.65471187  0.49507605  0.10186336     0.38610
H2819       H  0.56880018  0.46627588  0.06475497     0.41740
H2820       H  0.52183221  0.43228904  0.08050245     0.36530
H2821       H  0.99132714  0.34714383  0.11641733     0.42640
H2822       H  0.52430631  0.31814206  0.12534577     0.39060
H2823       H  0.64193923  0.01218472  0.09784558     0.43980
H2824       H  0.49946076  0.40444265  0.06873421     0.42700
H2825       H  0.52419537  0.31574756  0.15685165     0.42840
H2826       H  0.66302344  0.42027385  0.18373139     0.43190
O2827       O  0.65080704  0.11983443  0.33014264    -0.75680
O2828       O  0.68839964  0.12113770  0.31756643    -0.54580
C2829       C  0.66982452  0.12638017  0.31452185     0.78050
O2830       O  0.66747443  0.12541654  0.46315183    -0.60280
O2831       O  0.63344652  0.08499939  0.46790917    -0.53310
C2832       C  0.64714961  0.10991239  0.47509106     0.70070
O2833       O  0.72965416  0.15516112  0.40439870    -0.74840
O2834       O  0.73444793  0.14085786  0.36147256    -0.55400
C2835       C  0.74219661  0.15796245  0.38258636     0.76070
O2836       O  0.59239703  0.07861708  0.39021856    -0.59980
O2837       O  0.59165201  0.05817041  0.42774030    -0.53100
C2838       C  0.58172094  0.06701303  0.41130779     0.72660
Zr2839     Zr  0.63277152  0.09328159  0.36716752     2.54710
O2840       O  0.62857394  0.13178224  0.37792069    -0.80550
O2841       O  0.59779079  0.07387074  0.33114740    -0.93960
Zr2842     Zr  0.69085070  0.12311719  0.42384990     2.64680
O2843       O  0.69388020  0.16572914  0.42879976    -0.98920
O2844       O  0.72338787  0.13601383  0.46146955    -0.80980
O2845       O  0.67842465  0.11952568  0.37680540    -0.84340
O2846       O  0.64530061  0.09844258  0.41384441    -2.19050
O2847       O  0.60715913  0.99689449  0.38020382    -0.67730
O2848       O  0.59199573  0.01587813  0.41104793    -0.52290
C2849       C  0.58869148  0.99729166  0.39294816     0.71040
O2850       O  0.73357770  0.07009123  0.38575088    -0.60630
O2851       O  0.73593217  0.09351326  0.35017643    -0.52610
C2852       C  0.74461782  0.08240975  0.36505117     0.72850
O2853       O  0.67424752  0.02973503  0.44865895    -0.72030
O2854       O  0.63585705  0.02818334  0.45838760    -0.50710
C2855       C  0.65307534  0.02121152  0.46165258     0.74230
O2856       O  0.67338590  0.03254386  0.32695430    -0.67360
O2857       O  0.68932401  0.06995814  0.30817400    -0.54560
C2858       C  0.67945964  0.04503232  0.30595581     0.72610
Zr2859     Zr  0.63917922  0.03018126  0.35514411     2.77540
O2860       O  0.63053544  0.48768584  0.33369746    -0.98110
O2861       O  0.60750050  0.02145857  0.31793871    -0.78930
Zr2862     Zr  0.69582069  0.05946012  0.41308468     2.70070
O2863       O  0.70352412  0.02279225  0.40765488    -0.80180
O2864       O  0.73029727  0.08236638  0.44941115    -0.99260
Zr2865     Zr  0.69723299  0.09750630  0.35151093     2.21500
Zr2866     Zr  0.63147401  0.05617107  0.42738562     2.11130
O2867       O  0.65051466  0.03376975  0.40253300    -2.47950
O2868       O  0.68445039  0.05543439  0.36559001    -0.79970
O2869       O  0.61944518  0.05127185  0.37972864    -0.72160
O2870       O  0.70970781  0.10136891  0.39919938    -2.33120
O2871       O  0.65131140  0.07165741  0.34109407    -2.29330
O2872       O  0.67730659  0.08149139  0.43875093    -0.73920
H2873       H  0.63655293  0.10664612  0.42313608     0.78070
H2874       H  0.72841054  0.11147773  0.40239359     0.79160
H2875       H  0.64486180  0.01668211  0.40804027     0.81390
H2876       H  0.64702762  0.07023136  0.32174579     0.78990
H2877       H  0.73901502  0.13778335  0.45254524     0.42030
H2878       H  0.72174944  0.08597766  0.46509514     0.41000
H2879       H  0.69153125  0.01116791  0.39192641     0.40680
H2880       H  0.63030013  0.47783793  0.34899432     0.38610
H2881       H  0.59235139  0.02048368  0.32726447     0.41740
H2882       H  0.60597514  0.07184766  0.31429999     0.36530
H2883       H  0.64665223  0.14622227  0.38263235     0.42640
H2884       H  0.67566036  0.16190717  0.42975200     0.39060
H2885       H  0.61232785  0.47862138  0.32589243     0.43980
H2886       H  0.59402892  0.08796096  0.32823834     0.42700
H2887       H  0.70196598  0.17363457  0.44749768     0.42840
H2888       H  0.73392145  0.06884548  0.45499727     0.43190
O2889       O  0.53863595  0.17917745  0.21124599    -0.75680
O2890       O  0.54735810  0.14896251  0.22591621    -0.54580
C2891       C  0.53469384  0.16144022  0.22704832     0.78050
O2892       O  0.52711117  0.15525237  0.08815982    -0.60280
O2893       O  0.56515269  0.17554797  0.06750979    -0.53310
C2894       C  0.54003046  0.16186675  0.06689751     0.70070
O2895       O  0.50752335  0.11369944  0.16171198    -0.74840
O2896       O  0.52811228  0.09960660  0.18784311    -0.55400
C2897       C  0.50789247  0.09568242  0.17375711     0.76070
O2898       O  0.58005155  0.23714651  0.14730836    -0.59980
O2899       O  0.59213592  0.23058419  0.10443551    -0.53100
C2900       C  0.58692320  0.24377464  0.12293015     0.72660
Zr2901     Zr  0.56988891  0.20114683  0.17598234     2.54710
O2902       O  0.53657342  0.21361651  0.17746022    -0.80550
O2903       O  0.59426309  0.23594775  0.21289469    -0.93960
Zr2904     Zr  0.53455319  0.13584182  0.12521286     2.64680
O2905       O  0.98808394  0.11908737  0.11609710    -0.98920
O2906       O  0.52346513  0.09679868  0.09398716    -0.80980
O2907       O  0.54525309  0.15488055  0.17110793    -0.84340
O2908       O  0.55848436  0.18247330  0.12951319    -2.19050
O2909       O  0.66176068  0.23334363  0.14657275    -0.67730
O2910       O  0.64150457  0.23133548  0.10601502    -0.52290
C2911       C  0.66128318  0.24228018  0.12364804     0.71040
O2912       O  0.59159210  0.09818586  0.14790766    -0.60630
O2913       O  0.57167074  0.09818802  0.18744785    -0.52610
C2914       C  0.58108852  0.08829462  0.16958247     0.72850
O2915       O  0.61443179  0.14340933  0.07933509    -0.72030
O2916       O  0.61365259  0.17881112  0.06637417    -0.50710
C2917       C  0.61714465  0.15902996  0.06187374     0.74230
O2918       O  0.64281221  0.17722177  0.21302052    -0.67360
O2919       O  0.60376732  0.14546678  0.22605409    -0.54560
C2920       C  0.62896002  0.15886543  0.22819961     0.72610
Zr2921     Zr  0.63495704  0.19836787  0.17525642     2.77540
O2922       O  0.67868625  0.20438627  0.17552057    -0.98110
O2923       O  0.64934717  0.23490371  0.21092387    -0.78930
Zr2924     Zr  0.60014409  0.13427317  0.12404993     2.70070
O2925       O  0.64232822  0.13674923  0.12626277    -0.80180
O2926       O  0.58010508  0.09329670  0.09391489    -0.99260
Zr2927     Zr  0.57086593  0.13916293  0.19104257     2.21500
Zr2928     Zr  0.59789559  0.19345021  0.10677584     2.11130
O2929       O  0.62516559  0.18022182  0.12825811    -2.47950
O2930       O  0.61097060  0.15219074  0.17023530    -0.79970
O2931       O  0.60897243  0.21267265  0.15378526    -0.72160
O2932       O  0.56016354  0.12060026  0.14443798    -2.33120
O2933       O  0.59552052  0.18616126  0.19755620    -2.29330
O2934       O  0.57331160  0.14712736  0.10261761    -0.73920
H2935       H  0.54905276  0.18992761  0.12172324     0.78070
H2936       H  0.55026727  0.10177704  0.14297601     0.79160
H2937       H  0.64102118  0.18561188  0.11886544     0.81390
H2938       H  0.59907266  0.19240394  0.21686955     0.78990
H2939       H  0.52219081  0.08337216  0.10536391     0.42030
H2940       H  0.57012967  0.09568441  0.07931959     0.41000
H2941       H  0.65056705  0.14650490  0.14438736     0.40680
H2942       H  0.68219437  0.20285639  0.15594275     0.38610
H2943       H  0.64450729  0.24680650  0.20316273     0.41740
H2944       H  0.58341837  0.23027810  0.22884153     0.36530
H2945       H  0.52220615  0.20002740  0.16470828     0.42640
H2946       H  0.98606154  0.13470282  0.11741351     0.39060
H2947       H  0.69039367  0.22304833  0.18224455     0.43980
H2948       H  0.59281894  0.25090135  0.20770498     0.42700
H2949       H  0.98432175  0.11215220  0.09644098     0.42840
H2950       H  0.59469814  0.09293023  0.08464512     0.43190
O2951       O  0.82425255  0.46538856  0.18917683    -0.75680
O2952       O  0.86175022  0.46591656  0.20154990    -0.54580
C2953       C  0.84493466  0.47348923  0.20502121     0.78050
O2954       O  0.77823565  0.33669109  0.11274111    -0.60280
O2955       O  0.76067205  0.35109563  0.08293604    -0.53310
C2956       C  0.75857180  0.33395235  0.09868848     0.70070
O2957       O  0.82742287  0.37022720  0.19044742    -0.74840
O2958       O  0.86111101  0.41118113  0.20454137    -0.55400
C2959       C  0.84646797  0.38675544  0.20735811     0.76070
O2960       O  0.76393162  0.42147357  0.11841481    -0.59980
O2961       O  0.76058791  0.39789900  0.07734315    -0.53100
C2962       C  0.75175390  0.40817535  0.09550613     0.72660
Zr2963     Zr  0.80402331  0.43642890  0.14627043     2.54710
O2964       O  0.76978302  0.42075427  0.17846993    -0.80550
O2965       O  0.80176073  0.47551774  0.14056000    -0.93960
Zr2966     Zr  0.80462620  0.37101185  0.14924934     2.64680
O2967       O  0.76823806  0.36560225  0.17625638    -0.98920
O2968       O  0.79161281  0.32750489  0.16130197    -0.80980
O2969       O  0.82009629  0.41403981  0.17062262    -0.84340
O2970       O  0.78777653  0.39296234  0.12571752    -2.19050
O2971       O  0.84382780  0.46199961  0.05546988    -0.67730
O2972       O  0.80853022  0.42219632  0.04027398    -0.52290
C2973       C  0.82573760  0.44640119  0.03746696     0.71040
O2974       O  0.90002589  0.40541798  0.13063064    -0.60630
O2975       O  0.90447898  0.43285631  0.16880673    -0.52610
C2976       C  0.91213041  0.41994860  0.15295631     0.72850
O2977       O  0.83092518  0.35610374  0.07065889    -0.72030
O2978       O  0.80979664  0.36856848  0.04307386    -0.50710
C2979       C  0.82253973  0.35658868  0.04679407     0.74230
O2980       O  0.90214074  0.49173925  0.12501594    -0.67360
O2981       O  0.90561705  0.47848477  0.16600580    -0.54560
C2982       C  0.91441680  0.49481930  0.14799012     0.72610
Zr2983     Zr  0.86236061  0.46023950  0.09808529     2.77540
O2984       O  0.89624208  0.47201719  0.06550269    -0.98110
O2985       O  0.86427404  0.50224855  0.10039096    -0.78930
Zr2986     Zr  0.86257533  0.39474470  0.10021442     2.70070
O2987       O  0.89299790  0.41504242  0.06520607    -0.80180
O2988       O  0.87800303  0.36368441  0.09317263    -0.99260
Zr2989     Zr  0.86600088  0.43653906  0.16643547     2.21500
Zr2990     Zr  0.79978258  0.39416216  0.07870358     2.11130
O2991       O  0.84631929  0.41713035  0.07622650    -2.47950
O2992       O  0.87924436  0.43805679  0.12066347    -0.79970
O2993       O  0.81640136  0.43794346  0.10018044    -0.72160
O2994       O  0.85046269  0.39269721  0.14615290    -2.33120
O2995       O  0.84974545  0.45961314  0.14347041    -2.29330
O2996       O  0.81680570  0.37203613  0.10317737    -0.73920
H2997       H  0.76906273  0.38329600  0.12632247     0.78070
H2998       H  0.85808642  0.38411257  0.15518269     0.79160
H2999       H  0.85073758  0.41744459  0.05731253     0.81390
H3000       H  0.85720212  0.47746383  0.15167863     0.78990
H3001       H  0.80417734  0.32317604  0.15259991     0.42030
H3002       H  0.86385350  0.34719389  0.09898349     0.41000
H3003       H  0.90931762  0.42844407  0.07563776     0.40680
H3004       H  0.88829757  0.45844100  0.04959789     0.38610
H3005       H  0.84582239  0.49782982  0.10021097     0.41740
H3006       H  0.81971804  0.49018816  0.14531491     0.36530
H3007       H  0.76574223  0.43500039  0.18191807     0.42640
H3008       H  0.75288147  0.35832147  0.16311487     0.39060
H3009       H  0.89810975  0.48796090  0.05860550     0.43980
H3010       H  0.79156204  0.47690444  0.15583334     0.42700
H3011       H  0.76469934  0.35116382  0.18725876     0.42840
H3012       H  0.87782875  0.36015277  0.07302420     0.43190
C3013       C  0.94004919  0.01928621  0.15418589    -0.06510
C3014       C  0.95108089  0.02719671  0.18133136    -0.17640
C3015       C  0.97346436  0.05166661  0.18855509     0.10690
C3016       C  0.98465286  0.06919727  0.16864598    -0.06430
C3017       C  0.97421009  0.06086423  0.14153218    -0.17670
C3018       C  0.95314455  0.03599880  0.13384893     0.10720
S3019       S  0.98599997  0.05990141  0.22355284    -0.32630
S3020       S  0.94560862  0.02669821  0.09746649    -0.32640
H3021       H  0.94240816  0.50169962  0.09871170     0.28730
H3022       H  0.48989522  0.08520172  0.22408509     0.28720
H3023       H  0.94191110  0.01461377  0.19723885     0.19320
H3024       H  0.98322028  0.07355815  0.12574521     0.19320
C3025       C  0.68539068  0.26672782  0.11715223    -0.06510
C3026       C  0.68925338  0.27328099  0.08989663    -0.17640
C3027       C  0.71248454  0.29503487  0.08275390     0.10690
C3028       C  0.73278979  0.31064011  0.10311480    -0.06430
C3029       C  0.72860658  0.30423329  0.13016547    -0.17670
C3030       C  0.70529726  0.28353611  0.13755048     0.10720
S3031       S  0.71535595  0.30099193  0.04730111    -0.32630
S3032       S  0.70205616  0.28125162  0.17384257    -0.32640
H3033       H  0.67697006  0.27823070  0.17288779     0.28730
H3034       H  0.74220607  0.31002161  0.04731156     0.28720
H3035       H  0.67433407  0.26106904  0.07382576     0.19320
H3036       H  0.74352454  0.31613378  0.14626148     0.19320
C3037       C  0.64268108  0.15145380  0.24869287    -0.06510
C3038       C  0.66469705  0.17048720  0.26548486    -0.17640
C3039       C  0.67618716  0.16338536  0.28612017     0.10690
C3040       C  0.66631636  0.13662563  0.28928716    -0.06430
C3041       C  0.64566409  0.11797686  0.27148287    -0.17670
C3042       C  0.63369914  0.12491419  0.25209251     0.10720
S3043       S  0.70227752  0.18922692  0.30848555    -0.32630
S3044       S  0.60708639  0.09827805  0.23207811    -0.32640
H3045       H  0.61880451  0.10922972  0.20829186     0.28730
H3046       H  0.71058110  0.17362820  0.31996877     0.28720
H3047       H  0.67222344  0.19097966  0.26344491     0.19320
H3048       H  0.63751900  0.09741442  0.27391484     0.19320
C3049       C  0.63845693  0.12279731  0.49686537    -0.06510
C3050       C  0.65487803  0.14988992  0.00525510    -0.17640
C3051       C  0.64744231  0.16375290  0.02427631     0.10690
C3052       C  0.62267284  0.15073084  0.03476583    -0.06430
C3053       C  0.60574169  0.12428587  0.02523821    -0.17670
C3054       C  0.61356475  0.11000180  0.00765083     0.10720
S3055       S  0.67112759  0.19720956  0.03613746    -0.32630
S3056       S  0.59177613  0.07518299  0.50287408    -0.32640
H3057       H  0.58764564  0.07473537  0.47476103     0.28730
H3058       H  0.65287124  0.20543315  0.04052229     0.28720
H3059       H  0.67408099  0.16044149  0.49752104     0.19320
H3060       H  0.58696340  0.11385584  0.03398316     0.19320
C3061       C  0.63325378  0.46336960  0.01932746    -0.06510
C3062       C  0.65352121  0.48952423  0.02588104    -0.17640
C3063       C  0.66072354  0.00844060  0.00749586     0.10690
C3064       C  0.64786021  0.00143223  0.48116564    -0.06430
C3065       C  0.62879083  0.47498468  0.47374340    -0.17670
C3066       C  0.62156088  0.45598273  0.49234626     0.10720
S3067       S  0.68405784  0.04178847  0.02040523    -0.32630
S3068       S  0.59581599  0.42323877  0.48133916    -0.32640
H3069       H  0.60715621  0.41124469  0.99505403     0.28730
H3070       H  0.69503239  0.04985594  0.99545689     0.28720
H3071       H  0.66247188  0.99587683  0.04657676     0.19320
H3072       H  0.61891347  0.46920388  0.45350522     0.19320
C3073       C  0.64198170  0.49127432  0.23386159    -0.06510
C3074       C  0.66243152  0.49091412  0.24818261    -0.17640
C3075       C  0.67646397  0.50933303  0.27087517     0.10690
C3076       C  0.67089221  0.02942626  0.27883270    -0.06430
C3077       C  0.65148586  0.03059660  0.26377707    -0.17670
C3078       C  0.63654336  0.01148351  0.24220297     0.10720
S3079       S  0.70079926  0.50586598  0.28924206    -0.32630
S3080       S  0.61037947  0.01388197  0.22695899    -0.32640
H3081       H  0.59111749  0.99146822  0.23774330     0.28730
H3082       H  0.71570035  0.53219199  0.30033089     0.28720
H3083       H  0.66695703  0.47566226  0.24224726     0.19320
H3084       H  0.64645100  0.04539288  0.27029756     0.19320
C3085       C  0.58507107  0.01910276  0.16828236    -0.06510
C3086       C  0.56213464  0.01834889  0.17675222    -0.17640
C3087       C  0.56010912  0.04089663  0.17870604     0.10690
C3088       C  0.58199152  0.06467967  0.17367724    -0.06430
C3089       C  0.60573876  0.06568204  0.16861890    -0.17670
C3090       C  0.60755149  0.04326114  0.16596461     0.10720
S3091       S  0.52873977  0.03754162  0.18479395    -0.32630
S3092       S  0.63898499  0.04681076  0.15923740    -0.32640
H3093       H  0.63502758  0.02469748  0.17138946     0.28730
H3094       H  0.53004750  0.05408374  0.16540493     0.28720
H3095       H  0.54514092  0.49987433  0.17978722     0.19320
H3096       H  0.62289744  0.08410889  0.16559525     0.19320
C3097       C  0.58961608  0.26870449  0.11572053    -0.06510
C3098       C  0.57691020  0.26902330  0.09147876    -0.17640
C3099       C  0.57677087  0.29172256  0.08550835     0.10690
C3100       C  0.59043508  0.31495144  0.10364524    -0.06430
C3101       C  0.60471687  0.31486666  0.12665349    -0.17670
C3102       C  0.60465059  0.29233928  0.13273856     0.10720
S3103       S  0.55746076  0.28914301  0.05563269    -0.32630
S3104       S  0.62400846  0.29506071  0.16273932    -0.32640
H3105       H  0.63081441  0.27666394  0.15186348     0.28730
H3106       H  0.54952780  0.30657098  0.06662085     0.28720
H3107       H  0.56577945  0.25110102  0.07790600     0.19320
H3108       H  0.61493405  0.33233802  0.14103808     0.19320
C3109       C  0.67632530  0.40085797  0.09600272    -0.06510
C3110       C  0.69050288  0.40883079  0.07252991    -0.17640
C3111       C  0.71472668  0.41003045  0.07041504     0.10690
C3112       C  0.72469533  0.40281538  0.09216096    -0.06430
C3113       C  0.70916365  0.39240866  0.11413436    -0.17670
C3114       C  0.68518508  0.39121967  0.11626009     0.10720
S3115       S  0.73221460  0.42223150  0.04037883    -0.32630
S3116       S  0.66631876  0.37770193  0.14528762    -0.32640
H3117       H  0.68231536  0.36923692  0.15650708     0.28730
H3118       H  0.75725865  0.43195924  0.05246379     0.28720
H3119       H  0.68355426  0.41579193  0.05665159     0.19320
H3120       H  0.71647745  0.38615305  0.13039315     0.19320
C3121       C  0.93759538  0.42319112  0.15953391    -0.06510
C3122       C  0.95897129  0.44380407  0.14896655    -0.17640
C3123       C  0.98288478  0.44476142  0.14820340     0.10690
C3124       C  0.98561288  0.42497969  0.15901511    -0.06430
C3125       C  0.96442387  0.40491493  0.17061979    -0.17670
C3126       C  0.94042026  0.40388760  0.17109835     0.10720
S3127       S  0.50768502  0.46970295  0.12990227    -0.32630
S3128       S  0.91368093  0.37651592  0.18467872    -0.32640
H3129       H  0.89962800  0.38923865  0.19176429     0.28730
H3130       H  0.52888477  0.46885884  0.14120442     0.28720
H3131       H  0.95647058  0.45821942  0.13940827     0.19320
H3132       H  0.96604635  0.38904775  0.17775938     0.19320
C3133       C  0.98254305  0.12343861  0.49991768    -0.06510
C3134       C  0.99753062  0.15114258  0.00366513    -0.17640
C3135       C  0.51772936  0.16472478  0.02420269     0.10690
C3136       C  0.52397631  0.15047848  0.04099711    -0.06430
C3137       C  0.50983667  0.12304386  0.03677020    -0.17670
C3138       C  0.98926467  0.10941001  0.01684678     0.10720
S3139       S  0.53394227  0.19998078  0.02829889    -0.32630
S3140       S  0.97158057  0.07431898  0.51571268    -0.32640
H3141       H  0.98029805  0.07060940  0.49002434     0.28730
H3142       H  0.54257782  0.20409163  0.05597267     0.28720
H3143       H  0.99331615  0.16259849  0.49079932     0.19320
H3144       H  0.51418383  0.11199087  0.05007165     0.19320
C3145       C  0.97422540  0.13218518  0.28626685    -0.06510
C3146       C  0.97940811  0.15484685  0.27437777    -0.17640
C3147       C  0.99808511  0.16469472  0.25419118     0.10690
C3148       C  0.51344910  0.15289405  0.24719356    -0.06430
C3149       C  0.50754394  0.13018623  0.25916094    -0.17670
C3150       C  0.98754097  0.11907813  0.27667327     0.10720
S3151       S  0.00162910  0.19243843  0.23877446    -0.32630
S3152       S  0.98016901  0.08759179  0.28596770    -0.32640
H3153       H  0.95336957  0.07793729  0.28672150     0.28730
H3154       H  0.49603453  0.17931167  0.21205820     0.28720
H3155       H  0.96934295  0.16515858  0.28110687     0.19320
H3156       H  0.51820298  0.12008856  0.25439635     0.19320
C3157       C  0.85385081  0.99749121  0.47484876    -0.06510
C3158       C  0.83356520  0.99658884  0.99029114    -0.17640
C3159       C  0.82140357  0.47806847  0.00922304     0.10690
C3160       C  0.82792696  0.45829669  0.01147268    -0.06430
C3161       C  0.84639329  0.45780487  0.99410783    -0.17670
C3162       C  0.85980977  0.47730657  0.47674222     0.10720
S3163       S  0.79891676  0.98197858  0.03093466    -0.32630
S3164       S  0.88522180  0.47579330  0.45846838    -0.32160
H3165       H  0.90503667  0.49646098  0.47607503     0.28730
H3166       H  0.80004800  0.46839229  0.05228841     0.28720
H3167       H  0.82842268  0.01159853  0.98910833     0.19320
H3168       H  0.85253542  0.44362985  0.99624138     0.19320
C3169       C  0.85017443  0.49364738  0.22839350    -0.06510
C3170       C  0.87349220  0.01781947  0.23011982    -0.17640
C3171       C  0.87948549  0.03745723  0.25192165     0.10690
C3172       C  0.86237984  0.03266160  0.27340357    -0.06430
C3173       C  0.83854600  0.50874010  0.27092479    -0.17670
C3174       C  0.83224995  0.48937355  0.24872393     0.10720
S3175       S  0.91003113  0.06742195  0.25198108    -0.32630
S3176       S  0.80235146  0.45834330  0.24775887    -0.32640
H3177       H  0.79253946  0.46454905  0.27150653     0.28730
H3178       H  0.89901798  0.08337787  0.25763959     0.28720
H3179       H  0.88717622  0.02144873  0.21429082     0.19320
H3180       H  0.82538995  0.50465077  0.28732071     0.19320
C3181       C  0.50963390  0.06557129  0.41910167    -0.06510
C3182       C  0.51152168  0.04797191  0.39947041    -0.17640
C3183       C  0.53434536  0.04674874  0.39784997     0.10690
C3184       C  0.55587365  0.06346891  0.41629400    -0.06430
C3185       C  0.55371028  0.08035624  0.43667855    -0.17670
C3186       C  0.53084039  0.08168998  0.43829577     0.10720
S3187       S  0.53566404  0.02520012  0.37026052    -0.32630
S3188       S  0.53126454  0.10594122  0.46375934    -0.32640
H3189       H  0.00721088  0.10339983  0.45626836     0.28730
H3190       H  0.55399804  0.02107148  0.38377067     0.28720
H3191       H  0.49559150  0.03615055  0.38421318     0.19320
H3192       H  0.57056676  0.09406094  0.45007109     0.19320
C3193       C  0.81655172  0.08384996  0.35358395    -0.06510
C3194       C  0.81684972  0.10730477  0.36131265    -0.17640
C3195       C  0.79356056  0.10762998  0.36420781     0.10690
C3196       C  0.76949732  0.08411423  0.35851118    -0.06430
C3197       C  0.76929953  0.06107919  0.34879780    -0.17670
C3198       C  0.79257980  0.06076478  0.34608189     0.10720
S3199       S  0.79594300  0.13809612  0.37760234    -0.32630
S3200       S  0.79057982  0.03013007  0.33421397    -0.32640
H3201       H  0.81561840  0.04116196  0.32415225     0.28730
H3202       H  0.77444520  0.12713543  0.39387864     0.28720
H3203       H  0.83522431  0.12498546  0.36750114     0.19320
H3204       H  0.75087819  0.04305503  0.34415636     0.19320
C3205       C  0.97288570  0.32990568  0.47949534    -0.06510
C3206       C  0.98729203  0.31719225  0.48272302    -0.17640
C3207       C  0.50883471  0.32770648  0.00225836     0.10690
C3208       C  0.51746420  0.35251004  0.01717753    -0.06430
C3209       C  0.50361688  0.36539404  0.01249745    -0.17670
C3210       C  0.98094045  0.35380628  0.49559606     0.10720
S3211       S  0.52381009  0.30841922  0.00735396    -0.32630
S3212       S  0.96337788  0.37118372  0.49469262    -0.32640
H3213       H  0.93887010  0.34848141  0.48908625     0.28730
H3214       H  0.54821222  0.32930470  0.01756260     0.28720
H3215       H  0.98207746  0.29934737  0.46967035     0.19320
H3216       H  0.50948928  0.38419059  0.02391193     0.19320
C3217       C  0.98300451  0.35365561  0.27266068    -0.06510
C3218       C  0.99019829  0.37794855  0.26358758    -0.17640
C3219       C  0.00758687  0.38800210  0.24344132     0.10690
C3220       C  0.51872207  0.37366158  0.23113322    -0.06430
C3221       C  0.51170448  0.34925061  0.23994598    -0.17670
C3222       C  0.99431871  0.33926201  0.26073786     0.10720
S3223       S  0.01258643  0.41836718  0.23322462    -0.32630
S3224       S  0.98743366  0.30817540  0.27066069    -0.32640
H3225       H  0.99788343  0.31875428  0.29768502     0.28730
H3226       H  0.50354784  0.40637183  0.20648703     0.28720
H3227       H  0.98211806  0.38967060  0.27212096     0.19320
H3228       H  0.52003507  0.33796155  0.23082267     0.19320
C3229       C  0.91320757  0.47580777  0.38991016    -0.06510
C3230       C  0.93783060  0.47855551  0.38675171    -0.17640
C3231       C  0.94026306  0.45880787  0.37188981     0.10690
C3232       C  0.91770781  0.43628831  0.36002987    -0.06430
C3233       C  0.89326926  0.43415012  0.36222867    -0.17670
C3234       C  0.89064131  0.45302236  0.37818045     0.10720
S3235       S  0.97188735  0.46168984  0.36925090    -0.32630
S3236       S  0.85794869  0.44721088  0.38218322    -0.32640
H3237       H  0.86421014  0.46773856  0.40288755     0.28730
H3238       H  0.98492283  0.48300592  0.38964796     0.28720
H3239       H  0.95511004  0.49668195  0.39458327     0.19320
H3240       H  0.87583786  0.41617486  0.35418525     0.19320
C3241       C  0.91403492  0.18351939  0.38443634    -0.06510
C3242       C  0.89894164  0.18538377  0.36349546    -0.17640
C3243       C  0.89487403  0.20663183  0.36418021     0.10690
C3244       C  0.90629084  0.22678771  0.38612514    -0.06430
C3245       C  0.92052017  0.22473370  0.40749485    -0.17670
C3246       C  0.92480333  0.20361739  0.40698950     0.10720
S3247       S  0.87480258  0.20688573  0.33652475    -0.32630
S3248       S  0.94575830  0.20445512  0.43458968    -0.32640
H3249       H  0.94546839  0.22421095  0.45249927     0.28730
H3250       H  0.86621414  0.22209304  0.35179975     0.28720
H3251       H  0.88990504  0.17003797  0.34655364     0.19320
H3252       H  0.92979327  0.24071237  0.42378946     0.19320
C3253       C  0.56249122  0.47559782  0.38450227    -0.06510
C3254       C  0.55808859  0.46495528  0.35680511    -0.17640
C3255       C  0.53472725  0.44294977  0.34714191     0.10690
C3256       C  0.51483997  0.43207109  0.36518002    -0.06430
C3257       C  0.51813113  0.44399111  0.39207379    -0.17670
C3258       C  0.54193242  0.46545502  0.40216858     0.10720
S3259       S  0.53187108  0.42937299  0.31205118    -0.32630
S3260       S  0.54512005  0.47767592  0.43782744    -0.32640
H3261       H  0.56967317  0.98010984  0.44281408     0.28730
H3262       H  0.51676962  0.40308256  0.31685853     0.28720
H3263       H  0.57325488  0.47337294  0.34261998     0.19320
H3264       H  0.50240829  0.43579778  0.40564088     0.19320
C3265       C  0.81607755  0.22913747  0.38729986    -0.06510
C3266       C  0.80745110  0.21220984  0.36284237    -0.17640
C3267       C  0.78338964  0.18926153  0.36016515     0.10690
C3268       C  0.76770323  0.18235701  0.38298716    -0.06430
C3269       C  0.77718012  0.19901883  0.40789272    -0.17670
C3270       C  0.80082864  0.22243159  0.41011503     0.10720
S3271       S  0.77413606  0.17062377  0.32679903    -0.32630
S3272       S  0.80955579  0.24347685  0.44198656    -0.32640
H3273       H  0.81853436  0.26673507  0.42974145     0.28730
H3274       H  0.75052898  0.17065498  0.32434988     0.28720
H3275       H  0.81921940  0.21746787  0.34520026     0.19320
H3276       H  0.76586566  0.19426825  0.42584813     0.19320
C3277       C  0.86171797  0.33383171  0.48568265    -0.06510
C3278       C  0.83695197  0.31465691  0.49280056    -0.17640
C3279       C  0.82277229  0.32108245  0.01215323     0.10690
C3280       C  0.83278592  0.34748426  0.02329988    -0.06430
C3281       C  0.85730012  0.36617641  0.01615351    -0.17670
C3282       C  0.87224390  0.35961679  0.49908177     0.10720
S3283       S  0.79199032  0.29500092  0.02115263    -0.32630
S3284       S  0.90492567  0.38574351  0.49528561    -0.32640
H3285       H  0.91459127  0.36968037  0.48499445     0.28730
H3286       H  0.78240010  0.31084318  0.03263612     0.28720
H3287       H  0.82821633  0.29494091  0.48261000     0.19320
H3288       H  0.86547100  0.38626012  0.02492253     0.19320
C3289       C  0.85283688  0.37616721  0.23044876    -0.06510
C3290       C  0.85630963  0.35453809  0.22444426    -0.17640
C3291       C  0.86348428  0.34412771  0.24506869     0.10690
C3292       C  0.86656816  0.35507701  0.27254674    -0.06430
C3293       C  0.86227031  0.37613145  0.27871212    -0.17670
C3294       C  0.85566389  0.38688788  0.25797715     0.10720
S3295       S  0.87011857  0.31817849  0.23469824    -0.32630
S3296       S  0.85004837  0.41351931  0.26779432    -0.32640
H3297       H  0.87102869  0.43129093  0.25373737     0.28730
H3298       H  0.86493290  0.30707354  0.25953145     0.28720
H3299       H  0.85423529  0.34620018  0.20333425     0.19320
H3300       H  0.86488954  0.38478581  0.29977491     0.19320
O3301       O  0.86245659  0.32842375  0.80764631    -0.75680
O3302       O  0.90244155  0.36239980  0.79999387    -0.54580
C3303       C  0.87780498  0.34786615  0.79462772     0.78050
O3304       O  0.87816038  0.34850409  0.94466904    -0.60280
O3305       O  0.87817556  0.31155058  0.95340627    -0.53310
C3306       C  0.87312609  0.33031867  0.95961691     0.70070
O3307       O  0.90666824  0.40012345  0.88047490    -0.74840
O3308       O  0.92732194  0.40434632  0.84071159    -0.55400
C3309       C  0.91707734  0.41186688  0.85964152     0.76070
O3310       O  0.84023160  0.26590740  0.86529241    -0.59980
O3311       O  0.85681111  0.26389074  0.90672563    -0.53100
C3312       C  0.83933588  0.25468499  0.88668864     0.72660
Zr3313     Zr  0.86665879  0.30575601  0.84526390     2.54710
O3314       O  0.82517170  0.30411927  0.85082313    -0.80550
O3315       O  0.84829124  0.27100957  0.80723544    -0.93960
Zr3316     Zr  0.89858501  0.36381510  0.90363923     2.64680
O3317       O  0.85847761  0.36566533  0.90329026    -0.98920
O3318       O  0.92029149  0.40255914  0.93682063    -0.80980
O3319       O  0.88982973  0.35126486  0.85614410    -0.84340
O3320       O  0.87392463  0.31814314  0.89358575    -2.19050
O3321       O  0.91690994  0.26247011  0.86237759    -0.67730
O3322       O  0.90276276  0.26289689  0.90564140    -0.52290
C3323       C  0.90830586  0.25221804  0.88463728     0.71040
O3324       O  0.99163768  0.38723853  0.86736316    -0.60630
O3325       O  0.97250477  0.40494470  0.84463772    -0.52610
C3326       C  0.99182641  0.40676129  0.85829164     0.72850
O3327       O  0.97173380  0.34041904  0.93606405    -0.72030
O3328       O  0.93247530  0.31112370  0.95105261    -0.50710
C3329       C  0.95771682  0.32556060  0.95357536     0.74230
O3330       O  0.95952110  0.32553974  0.80706867    -0.67360
O3331       O  0.95415048  0.35987600  0.80046860    -0.54560
C3332       C  0.96416587  0.34538878  0.79459800     0.72610
Zr3333     Zr  0.93158790  0.30332585  0.84352886     2.77540
O3334       O  0.96908349  0.29701645  0.84529788    -0.98110
O3335       O  0.91055421  0.27033183  0.80424215    -0.78930
Zr3336     Zr  0.96395442  0.36229610  0.90180965     2.70070
O3337       O  0.00953379  0.37669712  0.91304596    -0.80180
O3338       O  0.97592347  0.40048222  0.93457869    -0.99260
Zr3339     Zr  0.93082346  0.36573897  0.83727223     2.21500
Zr3340     Zr  0.89979389  0.30237318  0.91328524     2.11130
O3341       O  0.94010934  0.31616489  0.89163630    -2.47950
O3342       O  0.95651337  0.34899797  0.85420168    -0.79970
O3343       O  0.89185758  0.28977733  0.86459635    -0.72160
O3344       O  0.93958191  0.38003285  0.88519932    -2.33120
O3345       O  0.90671511  0.31986729  0.82444265    -2.29330
O3346       O  0.92420103  0.34847940  0.92348940    -0.73920
H3347       H  0.85736849  0.31139406  0.90184754     0.78070
H3348       H  0.94935829  0.39885015  0.88892901     0.79160
H3349       H  0.94917628  0.30790107  0.89836125     0.81390
H3350       H  0.90421014  0.31585023  0.80474053     0.78990
H3351       H  0.90872959  0.41012360  0.93720468     0.42030
H3352       H  0.96094400  0.39532794  0.94620017     0.41000
H3353       H  0.51323162  0.36492988  0.90070259     0.40680
H3354       H  0.96984111  0.29209985  0.86386709     0.38610
H3355       H  0.91533696  0.28020239  0.78805046     0.41740
H3356       H  0.86242048  0.27560267  0.79450253     0.36530
H3357       H  0.82993049  0.32260822  0.85534885     0.42640
H3358       H  0.84461337  0.34794133  0.90656551     0.39060
H3359       H  0.96373998  0.28084665  0.83285328     0.43980
H3360       H  0.83526836  0.27367384  0.79752601     0.42700
H3361       H  0.86013443  0.37693255  0.92025692     0.42840
H3362       H  0.99004273  0.40194085  0.94680637     0.43190
O3363       O  0.92353043  0.15509999  0.90576482    -0.75680
O3364       O  0.91015524  0.14443360  0.86049367    -0.54580
C3365       C  0.91638491  0.15965727  0.88324899     0.78050
O3366       O  0.98993080  0.08377834  0.89516283    -0.60280
O3367       O  0.96794972  0.05919345  0.92927164    -0.53310
C3368       C  0.98779925  0.07000752  0.91469533     0.70070
O3369       O  0.97167555  0.11876359  0.82947150    -0.74840
O3370       O  0.93660334  0.12131046  0.81445886    -0.55400
C3371       C  0.95971037  0.12425143  0.81176569     0.76070
O3372       O  0.95634961  0.12598976  0.96532700    -0.59980
O3373       O  0.95175297  0.08606855  0.96900230    -0.53100
C3374       C  0.96170753  0.11067003  0.97713126     0.72660
Zr3375     Zr  0.93194915  0.12375839  0.92446350     2.54710
O3376       O  0.97150414  0.16629038  0.93202949    -0.80550
O3377       O  0.91029701  0.13456639  0.96101441    -0.93960
Zr3378     Zr  0.96425105  0.09767676  0.87047362     2.64680
O3379       O  0.00454470  0.13914860  0.88141459    -0.98920
O3380       O  0.98516561  0.07786658  0.84325187    -0.80980
O3381       O  0.94337272  0.12268227  0.87813652    -0.84340
O3382       O  0.95469086  0.10087815  0.91624305    -2.19050
O3383       O  0.85562328  0.02726162  0.94340531    -0.67730
O3384       O  0.89339930  0.02892662  0.95666643    -0.52290
C3385       C  0.86855681  0.01941996  0.95734653     0.71040
O3386       O  0.86485025  0.03425059  0.82137920    -0.60630
O3387       O  0.88548623  0.07299016  0.80497628    -0.52610
C3388       C  0.87120926  0.04784720  0.80123167     0.72850
O3389       O  0.90248061  0.00307139  0.87243474    -0.72030
O3390       O  0.92254343  0.01564126  0.91544227    -0.50710
C3391       C  0.91241252  0.99961406  0.89357783     0.74230
O3392       O  0.83857538  0.06989048  0.88070316    -0.67360
O3393       O  0.86028990  0.09496492  0.84647504    -0.54560
C3394       C  0.84006144  0.08269611  0.86031993     0.72610
Zr3395     Zr  0.86482159  0.05897712  0.90929651     2.77540
O3396       O  0.82084289  0.02194755  0.89940048    -0.98110
O3397       O  0.85097876  0.07954520  0.94536760    -0.78930
Zr3398     Zr  0.89595682  0.03430686  0.85306743     2.70070
O3399       O  0.86082507  0.48982377  0.83955577    -0.80180
O3400       O  0.91636150  0.02626273  0.81334489    -0.99260
Zr3401     Zr  0.90379875  0.10054370  0.84947070     2.21500
Zr3402     Zr  0.92635754  0.05779327  0.92743735     2.11130
O3403       O  0.88625605  0.03510879  0.89960025    -2.47950
O3404       O  0.87445814  0.05784396  0.86230934    -0.79970
O3405       O  0.90409043  0.08136737  0.93772002    -0.72160
O3406       O  0.92544826  0.07615141  0.84148853    -2.33120
O3407       O  0.89270137  0.10161956  0.89669810    -2.29330
O3408       O  0.93546775  0.05494965  0.88051563    -0.73920
H3409       H  0.97131116  0.10930313  0.92651499     0.78070
H3410       H  0.92887852  0.07467838  0.82250830     0.79160
H3411       H  0.87561216  0.01725685  0.90349300     0.81390
H3412       H  0.88343708  0.11107600  0.89939219     0.78990
H3413       H  0.97192457  0.05902804  0.84029937     0.42030
H3414       H  0.92139591  0.01365474  0.81873088     0.41000
H3415       H  0.84671047  0.98765241  0.85157801     0.40680
H3416       H  0.82303302  0.00643870  0.89694075     0.38610
H3417       H  0.85760360  0.07687623  0.96263931     0.41740
H3418       H  0.89604358  0.13547174  0.95150660     0.36530
H3419       H  0.98517231  0.16341245  0.92383403     0.42640
H3420       H  0.00985643  0.13892022  0.90051458     0.39060
H3421       H  0.81217252  0.02049881  0.91683515     0.43980
H3422       H  0.92295559  0.15291540  0.96805128     0.42700
H3423       H  0.51748480  0.13734489  0.87022660     0.42840
H3424       H  0.90182338  0.01601868  0.79925814     0.43190
O3425       O  0.50551965  0.40807688  0.63004572    -0.75680
O3426       O  0.52778381  0.43233081  0.67011499    -0.54580
C3427       C  0.50777485  0.42152782  0.65292448     0.78050
O3428       O  0.57640195  0.34045006  0.62727816    -0.60280
O3429       O  0.59105048  0.35196285  0.58491968    -0.53310
C3430       C  0.58543006  0.33712153  0.60460201     0.70070
O3431       O  0.53814405  0.36653337  0.69138725    -0.74840
O3432       O  0.54907712  0.40806262  0.70733929    -0.55400
C3433       C  0.53664347  0.38334817  0.70868503     0.76070
O3434       O  0.52218323  0.36634372  0.56297186    -0.59980
O3435       O  0.55933791  0.37168640  0.54411800    -0.53100
C3436       C  0.53443957  0.36326054  0.54302599     0.72660
Zr3437     Zr  0.53259880  0.39600442  0.60344852     2.54710
O3438       O  0.98903193  0.35851809  0.60452980    -0.80550
O3439       O  0.51868084  0.41559062  0.57058692    -0.93960
Zr3440     Zr  0.56308498  0.36834467  0.65136720     2.64680
O3441       O  0.52280759  0.32634388  0.64322241    -0.98920
O3442       O  0.58027955  0.35278930  0.68565750    -0.80980
O3443       O  0.54063492  0.39142687  0.64910834    -0.84340
O3444       O  0.55395844  0.37146324  0.60507025    -2.19050
O3445       O  0.61591519  0.46312547  0.56127378    -0.67730
O3446       O  0.61442301  0.42495725  0.54575797    -0.52290
C3447       C  0.62015421  0.44890653  0.54330371     0.71040
O3448       O  0.64025548  0.46388894  0.69407782    -0.60630
O3449       O  0.60254607  0.46181161  0.70712780    -0.52610
C3450       C  0.62727630  0.47096439  0.71024550     0.72850
O3451       O  0.65490268  0.41676573  0.62493930    -0.72030
O3452       O  0.63621590  0.39793158  0.58182202    -0.50710
C3453       C  0.65429354  0.40542644  0.60100318     0.74230
O3454       O  0.59406645  0.49313141  0.63627775    -0.67360
O3455       O  0.57410119  0.47641069  0.67496887    -0.54560
C3456       C  0.58444988  0.49465123  0.65938712     0.72610
Zr3457     Zr  0.59996332  0.46172302  0.60590150     2.77540
O3458       O  0.64306127  0.50070754  0.61051793    -0.98110
O3459       O  0.58146729  0.48099470  0.57795962    -0.78930
Zr3460     Zr  0.63105476  0.43311166  0.65265303     2.70070
O3461       O  0.67512866  0.46935465  0.65016381    -0.80180
O3462       O  0.64457019  0.41448539  0.68699572    -0.99260
Zr3463     Zr  0.56961692  0.43407590  0.67073329     2.21500
Zr3464     Zr  0.59374648  0.39498681  0.58251957     2.11130
O3465       O  0.62198364  0.43766066  0.60673137    -2.47950
O3466       O  0.61018744  0.45792435  0.65093781    -0.79970
O3467       O  0.57202891  0.41963508  0.58169193    -0.72160
O3468       O  0.59162070  0.41022605  0.67478666    -2.33120
O3469       O  0.55982475  0.43854130  0.62530727    -2.29330
O3470       O  0.60245827  0.39139188  0.62934608    -0.73920
H3471       H  0.54354412  0.35393073  0.59599221     0.78070
H3472       H  0.59501544  0.40922498  0.69379097     0.79160
H3473       H  0.63817741  0.44644121  0.59785930     0.81390
H3474       H  0.55105602  0.44845470  0.62478825     0.78990
H3475       H  0.58212134  0.36366137  0.70300587     0.42030
H3476       H  0.63505538  0.39546394  0.68107161     0.41000
H3477       H  0.67278816  0.48430806  0.64708664     0.40680
H3478       H  0.65471192  0.49507604  0.60186339     0.38610
H3479       H  0.56880025  0.46627596  0.56475502     0.41740
H3480       H  0.52183227  0.43228912  0.58050244     0.36530
H3481       H  0.99132712  0.34714392  0.61641730     0.42640
H3482       H  0.52430629  0.31814205  0.62534574     0.39060
H3483       H  0.64193928  0.01218474  0.59784569     0.43980
H3484       H  0.49946080  0.40444274  0.56873421     0.42700
H3485       H  0.52419521  0.31574760  0.65685164     0.42840
H3486       H  0.66302338  0.42027377  0.68373142     0.43190
O3487       O  0.65080704  0.11983443  0.83014263    -0.75680
O3488       O  0.68839963  0.12113771  0.81756642    -0.54580
C3489       C  0.66982451  0.12638017  0.81452184     0.78050
O3490       O  0.66747444  0.12541654  0.96315183    -0.60280
O3491       O  0.63344653  0.08499940  0.96790916    -0.53310
C3492       C  0.64714962  0.10991239  0.97509106     0.70070
O3493       O  0.72965416  0.15516112  0.90439870    -0.74840
O3494       O  0.73444793  0.14085787  0.86147255    -0.55400
C3495       C  0.74219662  0.15796246  0.88258636     0.76070
O3496       O  0.59239704  0.07861711  0.89021856    -0.59980
O3497       O  0.59165202  0.05817042  0.92774030    -0.53100
C3498       C  0.58172095  0.06701306  0.91130780     0.72660
Zr3499     Zr  0.63277153  0.09328161  0.86716752     2.54710
O3500       O  0.62857397  0.13178228  0.87792070    -0.80550
O3501       O  0.59779078  0.07387077  0.83114741    -0.93960
Zr3502     Zr  0.69085071  0.12311719  0.92384989     2.64680
O3503       O  0.69388022  0.16572915  0.92879977    -0.98920
O3504       O  0.72338788  0.13601382  0.96146955    -0.80980
O3505       O  0.67842466  0.11952569  0.87680540    -0.84340
O3506       O  0.64530062  0.09844259  0.91384441    -2.19050
O3507       O  0.60715909  0.99689449  0.88020376    -0.67730
O3508       O  0.59199573  0.01587815  0.91104790    -0.52290
C3509       C  0.58869146  0.99729167  0.89294812     0.71040
O3510       O  0.73357769  0.07009122  0.88575085    -0.60630
O3511       O  0.73593217  0.09351327  0.85017642    -0.52610
C3512       C  0.74461782  0.08240975  0.86505115     0.72850
O3513       O  0.67424751  0.02973502  0.94865892    -0.72030
O3514       O  0.63585705  0.02818334  0.95838758    -0.50710
C3515       C  0.65307533  0.02121151  0.96165256     0.74230
O3516       O  0.67338590  0.03254388  0.82695429    -0.67360
O3517       O  0.68932402  0.06995815  0.80817398    -0.54560
C3518       C  0.67945964  0.04503233  0.80595580     0.72610
Zr3519     Zr  0.63917921  0.03018128  0.85514409     2.77540
O3520       O  0.63053544  0.48768584  0.83369748    -0.98110
O3521       O  0.60750052  0.02145861  0.81793867    -0.78930
Zr3522     Zr  0.69582068  0.05946012  0.91308466     2.70070
O3523       O  0.70352410  0.02279224  0.90765484    -0.80180
O3524       O  0.73029726  0.08236636  0.94941112    -0.99260
Zr3525     Zr  0.69723300  0.09750631  0.85151092     2.21500
Zr3526     Zr  0.63147401  0.05617108  0.92738561     2.11130
O3527       O  0.65051465  0.03376975  0.90253297    -2.47950
O3528       O  0.68445039  0.05543439  0.86558999    -0.79970
O3529       O  0.61944518  0.05127187  0.87972862    -0.72160
O3530       O  0.70970781  0.10136891  0.89919937    -2.33120
O3531       O  0.65131141  0.07165743  0.84109406    -2.29330
O3532       O  0.67730659  0.08149138  0.93875092    -0.73920
H3533       H  0.63655294  0.10664613  0.92313608     0.78070
H3534       H  0.72841054  0.11147772  0.90239358     0.79160
H3535       H  0.64486178  0.01668211  0.90804024     0.81390
H3536       H  0.64702762  0.07023139  0.82174578     0.78990
H3537       H  0.73901502  0.13778334  0.95254523     0.42030
H3538       H  0.72174944  0.08597764  0.96509512     0.41000
H3539       H  0.69153124  0.01116791  0.89192636     0.40680
H3540       H  0.63030010  0.47783791  0.84899435     0.38610
H3541       H  0.59235142  0.02048375  0.82726442     0.41740
H3542       H  0.60597512  0.07184767  0.81430000     0.36530
H3543       H  0.64665227  0.14622230  0.88263235     0.42640
H3544       H  0.67566039  0.16190718  0.92975201     0.39060
H3545       H  0.61232786  0.47862138  0.82589242     0.43980
H3546       H  0.59402893  0.08796100  0.82823835     0.42700
H3547       H  0.70196600  0.17363456  0.94749770     0.42840
H3548       H  0.73392144  0.06884545  0.95499724     0.43190
O3549       O  0.53863597  0.17917748  0.71124599    -0.75680
O3550       O  0.54735810  0.14896253  0.72591619    -0.54580
C3551       C  0.53469385  0.16144025  0.72704831     0.78050
O3552       O  0.52711118  0.15525240  0.58815981    -0.60280
O3553       O  0.56515270  0.17554798  0.56750977    -0.53310
C3554       C  0.54003046  0.16186677  0.56689750     0.70070
O3555       O  0.50752333  0.11369947  0.66171196    -0.74840
O3556       O  0.52811224  0.09960662  0.68784310    -0.55400
C3557       C  0.50789244  0.09568245  0.67375711     0.76070
O3558       O  0.58005157  0.23714653  0.64730834    -0.59980
O3559       O  0.59213593  0.23058420  0.60443550    -0.53100
C3560       C  0.58692322  0.24377466  0.62293014     0.72660
Zr3561     Zr  0.56988893  0.20114685  0.67598233     2.54710
O3562       O  0.53657343  0.21361653  0.67746021    -0.80550
O3563       O  0.59426312  0.23594777  0.71289466    -0.93960
Zr3564     Zr  0.53455317  0.13584184  0.62521284     2.64680
O3565       O  0.98808393  0.11908741  0.61609711    -0.98920
O3566       O  0.52346511  0.09679868  0.59398715    -0.80980
O3567       O  0.54525309  0.15488056  0.67110791    -0.84340
O3568       O  0.55848437  0.18247331  0.62951317    -2.19050
O3569       O  0.66176069  0.23334361  0.64657272    -0.67730
O3570       O  0.64150458  0.23133548  0.60601500    -0.52290
C3571       C  0.66128320  0.24228016  0.62364802     0.71040
O3572       O  0.59159206  0.09818584  0.64790763    -0.60630
O3573       O  0.57167072  0.09818801  0.68744783    -0.52610
C3574       C  0.58108849  0.08829461  0.66958246     0.72850
O3575       O  0.61443176  0.14340931  0.57933506    -0.72030
O3576       O  0.61365259  0.17881113  0.56637415    -0.50710
C3577       C  0.61714463  0.15902996  0.56187371     0.74230
O3578       O  0.64281220  0.17722175  0.71302050    -0.67360
O3579       O  0.60376730  0.14546676  0.72605407    -0.54560
C3580       C  0.62896000  0.15886541  0.72819959     0.72610
Zr3581     Zr  0.63495704  0.19836785  0.67525639     2.77540
O3582       O  0.67868623  0.20438621  0.67552053    -0.98110
O3583       O  0.64934719  0.23490370  0.71092384    -0.78930
Zr3584     Zr  0.60014406  0.13427315  0.62404990     2.70070
O3585       O  0.64232817  0.13674918  0.62626272    -0.80180
O3586       O  0.58010502  0.09329668  0.59391486    -0.99260
Zr3587     Zr  0.57086591  0.13916293  0.69104255     2.21500
Zr3588     Zr  0.59789559  0.19345022  0.60677583     2.11130
O3589       O  0.62516558  0.18022181  0.62825809    -2.47950
O3590       O  0.61097058  0.15219072  0.67023527    -0.79970
O3591       O  0.60897244  0.21267265  0.65378525    -0.72160
O3592       O  0.56016351  0.12060026  0.64443796    -2.33120
O3593       O  0.59552052  0.18616126  0.69755618    -2.29330
O3594       O  0.57331159  0.14712737  0.60261759    -0.73920
H3595       H  0.54905277  0.18992764  0.62172323     0.78070
H3596       H  0.55026723  0.10177703  0.64297599     0.79160
H3597       H  0.64102117  0.18561185  0.61886541     0.81390
H3598       H  0.59907266  0.19240393  0.71686953     0.78990
H3599       H  0.52219075  0.08337215  0.60536391     0.42030
H3600       H  0.57012962  0.09568441  0.57931956     0.41000
H3601       H  0.65056701  0.14650484  0.64438731     0.40680
H3602       H  0.68219435  0.20285634  0.65594271     0.38610
H3603       H  0.64450731  0.24680650  0.70316270     0.41740
H3604       H  0.58341843  0.23027809  0.72884153     0.36530
H3605       H  0.52220617  0.20002741  0.66470827     0.42640
H3606       H  0.98606154  0.13470287  0.61741352     0.39060
H3607       H  0.69039366  0.22304827  0.68224452     0.43980
H3608       H  0.59281892  0.25090135  0.70770499     0.42700
H3609       H  0.98432173  0.11215224  0.59644099     0.42840
H3610       H  0.59469808  0.09293020  0.58464509     0.43190
O3611       O  0.82425251  0.46538853  0.68917686    -0.75680
O3612       O  0.86175018  0.46591653  0.70154993    -0.54580
C3613       C  0.84493463  0.47348920  0.70502124     0.78050
O3614       O  0.77823569  0.33669108  0.61274108    -0.60280
O3615       O  0.76067207  0.35109561  0.58293602    -0.53310
C3616       C  0.75857183  0.33395233  0.59868846     0.70070
O3617       O  0.82742286  0.37022717  0.69044741    -0.74840
O3618       O  0.86111099  0.41118111  0.70454138    -0.55400
C3619       C  0.84646796  0.38675541  0.70735811     0.76070
O3620       O  0.76393159  0.42147352  0.61841483    -0.59980
O3621       O  0.76058790  0.39789898  0.57734315    -0.53100
C3622       C  0.75175388  0.40817531  0.59550614     0.72660
Zr3623     Zr  0.80402326  0.43642885  0.64627047     2.54710
O3624       O  0.76978298  0.42075414  0.67846997    -0.80550
O3625       O  0.80176060  0.47551765  0.64056009    -0.93960
Zr3626     Zr  0.80462621  0.37101182  0.64924932     2.64680
O3627       O  0.76823804  0.36560215  0.67625635    -0.98920
O3628       O  0.79161289  0.32750487  0.66130191    -0.80980
O3629       O  0.82009627  0.41403976  0.67062263    -0.84340
O3630       O  0.78777652  0.39296230  0.62571752    -2.19050
O3631       O  0.84382778  0.46199963  0.55546992    -0.67730
O3632       O  0.80853023  0.42219633  0.54027399    -0.52290
C3633       C  0.82573760  0.44640120  0.53746698     0.71040
O3634       O  0.90002593  0.40541805  0.63063063    -0.60630
O3635       O  0.90447899  0.43285635  0.66880674    -0.52610
C3636       C  0.91213044  0.41994867  0.65295631     0.72850
O3637       O  0.83092524  0.35610378  0.57065888    -0.72030
O3638       O  0.80979667  0.36856849  0.54307386    -0.50710
C3639       C  0.82253976  0.35658870  0.54679407     0.74230
O3640       O  0.90214068  0.49173929  0.62501601    -0.67360
O3641       O  0.90561701  0.47848479  0.66600585    -0.54560
C3642       C  0.91441675  0.49481933  0.64799019     0.72610
Zr3643     Zr  0.86236057  0.46023952  0.59808534     2.77540
O3644       O  0.89624206  0.47201727  0.56550274    -0.98110
O3645       O  0.86427395  0.50224854  0.60039103    -0.78930
Zr3646     Zr  0.86257536  0.39474475  0.60021442     2.70070
O3647       O  0.89299792  0.41504252  0.56520608    -0.80180
O3648       O  0.87800312  0.36368451  0.59317260    -0.99260
Zr3649     Zr  0.86600086  0.43653906  0.66643549     2.21500
Zr3650     Zr  0.79978258  0.39416216  0.57870359     2.11130
O3651       O  0.84631929  0.41713039  0.57622651    -2.47950
O3652       O  0.87924435  0.43805682  0.62066350    -0.79970
O3653       O  0.81640132  0.43794344  0.60018047    -0.72160
O3654       O  0.85046271  0.39269722  0.64615290    -2.33120
O3655       O  0.84974541  0.45961312  0.64347045    -2.29330
O3656       O  0.81680573  0.37203614  0.60317735    -0.73920
H3657       H  0.76906272  0.38329595  0.62632247     0.78070
H3658       H  0.85808645  0.38411259  0.65518268     0.79160
H3659       H  0.85073758  0.41744464  0.55731255     0.81390
H3660       H  0.85720206  0.47746381  0.65167868     0.78990
H3661       H  0.80417744  0.32317605  0.65259983     0.42030
H3662       H  0.86385361  0.34719398  0.59898345     0.41000
H3663       H  0.90931764  0.42844416  0.57563777     0.40680
H3664       H  0.88829756  0.45844107  0.54959794     0.38610
H3665       H  0.84582229  0.49782979  0.60021106     0.41740
H3666       H  0.81971790  0.49018809  0.64531497     0.36530
H3667       H  0.76574217  0.43500024  0.68191814     0.42640
H3668       H  0.75288145  0.35832136  0.66311483     0.39060
H3669       H  0.89810970  0.48796097  0.55860556     0.43980
H3670       H  0.79156193  0.47690433  0.65583345     0.42700
H3671       H  0.76469934  0.35116371  0.68725871     0.42840
H3672       H  0.87782885  0.36015288  0.57302417     0.43190
C3673       C  0.94004915  0.01928624  0.65418592    -0.06510
C3674       C  0.95108087  0.02719674  0.68133139    -0.17640
C3675       C  0.97346434  0.05166664  0.68855511     0.10690
C3676       C  0.98465283  0.06919730  0.66864601    -0.06430
C3677       C  0.97421004  0.06086427  0.64153221    -0.17670
C3678       C  0.95314450  0.03599884  0.63384896     0.10720
S3679       S  0.98599997  0.05990143  0.72355286    -0.32630
S3680       S  0.94560855  0.02669825  0.59746652    -0.32640
H3681       H  0.94240812  0.50169955  0.59871182     0.28730
H3682       H  0.48989527  0.08520189  0.72408511     0.28720
H3683       H  0.94191108  0.01461379  0.69723887     0.19320
H3684       H  0.98322023  0.07355819  0.62574524     0.19320
C3685       C  0.68539070  0.26672780  0.61715221    -0.06510
C3686       C  0.68925338  0.27328099  0.58989661    -0.17640
C3687       C  0.71248455  0.29503487  0.58275388     0.10690
C3688       C  0.73278982  0.31064008  0.60311477    -0.06430
C3689       C  0.72860664  0.30423323  0.63016543    -0.17670
C3690       C  0.70529732  0.28353606  0.63755045     0.10720
S3691       S  0.71535592  0.30099196  0.54730110    -0.32630
S3692       S  0.70205625  0.28125154  0.67384253    -0.32640
H3693       H  0.67697017  0.27823067  0.67288781     0.28730
H3694       H  0.74220604  0.31002162  0.54731151     0.28720
H3695       H  0.67433406  0.26106906  0.57382575     0.19320
H3696       H  0.74352461  0.31613369  0.64626143     0.19320
C3697       C  0.64268106  0.15145379  0.74869285    -0.06510
C3698       C  0.66469704  0.17048719  0.76548483    -0.17640
C3699       C  0.67618715  0.16338535  0.78612015     0.10690
C3700       C  0.66631635  0.13662562  0.78928715    -0.06430
C3701       C  0.64566407  0.11797685  0.77148286    -0.17670
C3702       C  0.63369912  0.12491418  0.75209250     0.10720
S3703       S  0.70227752  0.18922691  0.80848551    -0.32630
S3704       S  0.60708636  0.09827804  0.73207811    -0.32640
H3705       H  0.61880447  0.10922970  0.70829185     0.28730
H3706       H  0.71058110  0.17362820  0.81996873     0.28720
H3707       H  0.67222343  0.19097964  0.76344487     0.19320
H3708       H  0.63751897  0.09741441  0.77391484     0.19320
C3709       C  0.63845693  0.12279732  0.99686537    -0.06510
C3710       C  0.65487802  0.14988992  0.50525510    -0.17640
C3711       C  0.64744229  0.16375290  0.52427630     0.10690
C3712       C  0.62267282  0.15073084  0.53476581    -0.06430
C3713       C  0.60574167  0.12428587  0.52523819    -0.17670
C3714       C  0.61356474  0.11000179  0.50765082     0.10720
S3715       S  0.67112757  0.19720956  0.53613745    -0.32630
S3716       S  0.59177614  0.07518300  0.00287408    -0.32640
H3717       H  0.58764564  0.07473539  0.97476103     0.28730
H3718       H  0.65287122  0.20543315  0.54052226     0.28720
H3719       H  0.67408100  0.16044150  0.99752104     0.19320
H3720       H  0.58696338  0.11385584  0.53398314     0.19320
C3721       C  0.63325379  0.46336961  0.51932747    -0.06510
C3722       C  0.65352121  0.48952425  0.52588105    -0.17640
C3723       C  0.66072355  0.00844061  0.50749588     0.10690
C3724       C  0.64786020  0.00143222  0.98116561    -0.06430
C3725       C  0.62879081  0.47498468  0.97374340    -0.17670
C3726       C  0.62156086  0.45598273  0.99234626     0.10720
S3727       S  0.68405786  0.04178848  0.52040525    -0.32630
S3728       S  0.59581594  0.42323877  0.98133915    -0.32640
H3729       H  0.60715627  0.41124471  0.49505402     0.28730
H3730       H  0.69503241  0.04985595  0.49545692     0.28720
H3731       H  0.66247190  0.99587684  0.54657678     0.19320
H3732       H  0.61891344  0.46920389  0.95350523     0.19320
C3733       C  0.64198171  0.49127431  0.73386160    -0.06510
C3734       C  0.66243153  0.49091411  0.74818262    -0.17640
C3735       C  0.67646398  0.50933302  0.77087519     0.10690
C3736       C  0.67089221  0.02942626  0.77883269    -0.06430
C3737       C  0.65148584  0.03059659  0.76377708    -0.17670
C3738       C  0.63654333  0.01148349  0.74220299     0.10720
S3739       S  0.70079926  0.50586597  0.78924208    -0.32630
S3740       S  0.61037942  0.01388193  0.72695903    -0.32640
H3741       H  0.59111746  0.99146817  0.73774335     0.28730
H3742       H  0.71570036  0.53219198  0.80033091     0.28720
H3743       H  0.66695704  0.47566225  0.74224728     0.19320
H3744       H  0.64645097  0.04539286  0.77029756     0.19320
C3745       C  0.58507107  0.01910276  0.66828239    -0.06510
C3746       C  0.56213465  0.01834889  0.67675226    -0.17640
C3747       C  0.56010911  0.04089663  0.67870607     0.10690
C3748       C  0.58199150  0.06467966  0.67367723    -0.06430
C3749       C  0.60573875  0.06568204  0.66861889    -0.17670
C3750       C  0.60755149  0.04326114  0.66596462     0.10720
S3751       S  0.52873976  0.03754161  0.68479400    -0.32630
S3752       S  0.63898498  0.04681077  0.65923741    -0.32640
H3753       H  0.63502759  0.02469751  0.67138950     0.28730
H3754       H  0.53004748  0.05408373  0.66540498     0.28720
H3755       H  0.54514094  0.49987433  0.67978723     0.19320
H3756       H  0.62289742  0.08410889  0.66559522     0.19320
C3757       C  0.58961609  0.26870450  0.61572052    -0.06510
C3758       C  0.57691023  0.26902331  0.59147874    -0.17640
C3759       C  0.57677089  0.29172257  0.58550833     0.10690
C3760       C  0.59043507  0.31495145  0.60364524    -0.06430
C3761       C  0.60471685  0.31486667  0.62665349    -0.17670
C3762       C  0.60465058  0.29233929  0.63273856     0.10720
S3763       S  0.55746079  0.28914303  0.55563267    -0.32630
S3764       S  0.62400845  0.29506072  0.66273933    -0.32640
H3765       H  0.63081442  0.27666396  0.65186349     0.28730
H3766       H  0.54952781  0.30657098  0.56662082     0.28720
H3767       H  0.56577949  0.25110104  0.57790597     0.19320
H3768       H  0.61493402  0.33233802  0.64103810     0.19320
C3769       C  0.67632527  0.40085793  0.59600272    -0.06510
C3770       C  0.69050285  0.40883074  0.57252990    -0.17640
C3771       C  0.71472666  0.41003039  0.57041504     0.10690
C3772       C  0.72469531  0.40281533  0.59216096    -0.06430
C3773       C  0.70916363  0.39240861  0.61413436    -0.17670
C3774       C  0.68518505  0.39121963  0.61626010     0.10720
S3775       S  0.73221457  0.42223144  0.54037883    -0.32630
S3776       S  0.66631873  0.37770190  0.64528763    -0.32640
H3777       H  0.68231533  0.36923688  0.65650709     0.28730
H3778       H  0.75725863  0.43195923  0.55246381     0.28720
H3779       H  0.68355423  0.41579188  0.55665158     0.19320
H3780       H  0.71647742  0.38615301  0.63039316     0.19320
C3781       C  0.93759541  0.42319120  0.65953392    -0.06510
C3782       C  0.95897132  0.44380416  0.64896657    -0.17640
C3783       C  0.98288482  0.44476151  0.64820342     0.10690
C3784       C  0.98561292  0.42497977  0.65901511    -0.06430
C3785       C  0.96442390  0.40491500  0.67061977    -0.17670
C3786       C  0.94042029  0.40388766  0.67109833     0.10720
S3787       S  0.50768505  0.46970303  0.62990227    -0.32630
S3788       S  0.91368096  0.37651596  0.68467866    -0.32640
H3789       H  0.89962804  0.38923870  0.69176427     0.28730
H3790       H  0.52888480  0.46885890  0.64120438     0.28720
H3791       H  0.95647062  0.45821951  0.63940830     0.19320
H3792       H  0.96604638  0.38904781  0.67775934     0.19320
C3793       C  0.98254305  0.12343860  0.99991768    -0.06510
C3794       C  0.99753063  0.15114259  0.50366510    -0.17640
C3795       C  0.51772937  0.16472479  0.52420267     0.10690
C3796       C  0.52397631  0.15047850  0.54099710    -0.06430
C3797       C  0.50983667  0.12304387  0.53677020    -0.17670
C3798       C  0.98926464  0.10941001  0.51684680     0.10720
S3799       S  0.53394227  0.19998079  0.52829887    -0.32630
S3800       S  0.97158062  0.07431897  0.01571264    -0.32640
H3801       H  0.98029810  0.07060942  0.99002429     0.28730
H3802       H  0.54257783  0.20409165  0.55597265     0.28720
H3803       H  0.99331612  0.16259849  0.99079937     0.19320
H3804       H  0.51418383  0.11199089  0.55007165     0.19320
C3805       C  0.97422541  0.13218521  0.78626686    -0.06510
C3806       C  0.97940812  0.15484688  0.77437777    -0.17640
C3807       C  0.99808512  0.16469475  0.75419118     0.10690
C3808       C  0.51344913  0.15289409  0.74719357    -0.06430
C3809       C  0.50754404  0.13018633  0.75916103    -0.17670
C3810       C  0.98754098  0.11907817  0.77667328     0.10720
S3811       S  0.00162909  0.19243845  0.73877444    -0.32630
S3812       S  0.98016903  0.08759183  0.78596771    -0.32640
H3813       H  0.95336958  0.07793732  0.78672150     0.28730
H3814       H  0.49603443  0.17931146  0.71205803     0.28720
H3815       H  0.96934295  0.16515860  0.78110687     0.19320
H3816       H  0.51820312  0.12008869  0.75439648     0.19320
C3817       C  0.85385082  0.99749121  0.97484874    -0.06510
C3818       C  0.83356517  0.99658883  0.49029114    -0.17640
C3819       C  0.82140357  0.47806847  0.50922304     0.10690
C3820       C  0.82792697  0.45829670  0.51147269    -0.06430
C3821       C  0.84639332  0.45780489  0.49410787    -0.17670
C3822       C  0.85980973  0.47730655  0.97674219     0.10720
S3823       S  0.79891671  0.98197855  0.53093463    -0.32630
S3824       S  0.88522175  0.47579328  0.95846832    -0.32160
H3825       H  0.90503663  0.49646093  0.97607498     0.28730
H3826       H  0.80004796  0.46839227  0.55228837     0.28720
H3827       H  0.82842264  0.01159851  0.48910831     0.19320
H3828       H  0.85253546  0.44362988  0.49624143     0.19320
C3829       C  0.85017441  0.49364738  0.72839352    -0.06510
C3830       C  0.87349218  0.01781947  0.73011983    -0.17640
C3831       C  0.87948547  0.03745723  0.75192166     0.10690
C3832       C  0.86237983  0.03266162  0.77340358    -0.06430
C3833       C  0.83854597  0.50874017  0.77092476    -0.17670
C3834       C  0.83224990  0.48937361  0.74872391     0.10720
S3835       S  0.91003112  0.06742195  0.75198108    -0.32630
S3836       S  0.80235136  0.45834340  0.74775883    -0.32640
H3837       H  0.79253936  0.46454919  0.77150647     0.28730
H3838       H  0.89901798  0.08337788  0.75763959     0.28720
H3839       H  0.88717620  0.02144872  0.71429084     0.19320
H3840       H  0.82538990  0.50465089  0.78732066     0.19320
C3841       C  0.50963391  0.06557132  0.91910169    -0.06510
C3842       C  0.51152169  0.04797193  0.89947045    -0.17640
C3843       C  0.53434536  0.04674876  0.89785000     0.10690
C3844       C  0.55587366  0.06346894  0.91629401    -0.06430
C3845       C  0.55371030  0.08035629  0.93667855    -0.17670
C3846       C  0.53084042  0.08169003  0.93829577     0.10720
S3847       S  0.53566403  0.02520012  0.87026056    -0.32630
S3848       S  0.53126458  0.10594129  0.96375933    -0.32640
H3849       H  0.00721091  0.10339987  0.95626835     0.28730
H3850       H  0.55399804  0.02107150  0.88377070     0.28720
H3851       H  0.49559149  0.03615056  0.88421323     0.19320
H3852       H  0.57056679  0.09406099  0.95007108     0.19320
C3853       C  0.81655171  0.08384995  0.85358394    -0.06510
C3854       C  0.81684971  0.10730476  0.86131256    -0.17640
C3855       C  0.79356056  0.10762997  0.86420772     0.10690
C3856       C  0.76949732  0.08411422  0.85851115    -0.06430
C3857       C  0.76929952  0.06107916  0.84879785    -0.17670
C3858       C  0.79257979  0.06076474  0.84608194     0.10720
S3859       S  0.79594301  0.13809614  0.87760217    -0.32630
S3860       S  0.79057980  0.03013002  0.83421411    -0.32640
H3861       H  0.81561837  0.04116188  0.82415235     0.28730
H3862       H  0.77444521  0.12713550  0.89387847     0.28720
H3863       H  0.83522431  0.12498547  0.86750100     0.19320
H3864       H  0.75087818  0.04305499  0.84415646     0.19320
C3865       C  0.97288570  0.32990571  0.97949536    -0.06510
C3866       C  0.98729198  0.31719223  0.98272304    -0.17640
C3867       C  0.50883474  0.32770649  0.50225834     0.10690
C3868       C  0.51746418  0.35251003  0.51717753    -0.06430
C3869       C  0.50361681  0.36539398  0.51249746    -0.17670
C3870       C  0.98094049  0.35380633  0.99559607     0.10720
S3871       S  0.52381019  0.30841928  0.50735392    -0.32630
S3872       S  0.96337798  0.37118383  0.99469262    -0.32640
H3873       H  0.93887018  0.34848155  0.98908622     0.28730
H3874       H  0.54821232  0.32930481  0.51756248     0.28720
H3875       H  0.98207736  0.29934734  0.96967039     0.19320
H3876       H  0.50948917  0.38419053  0.52391195     0.19320
C3877       C  0.98300450  0.35365560  0.77266070    -0.06510
C3878       C  0.99019826  0.37794852  0.76358757    -0.17640
C3879       C  0.00758682  0.38800207  0.74344129     0.10690
C3880       C  0.51872208  0.37366159  0.73113324    -0.06430
C3881       C  0.51170451  0.34925064  0.73994602    -0.17670
C3882       C  0.99431874  0.33926202  0.76073791     0.10720
S3883       S  0.01258632  0.41836710  0.73322453    -0.32630
S3884       S  0.98743375  0.30817544  0.77066080    -0.32640
H3885       H  0.99788349  0.31875437  0.79768514     0.28730
H3886       H  0.50354786  0.40637179  0.70648696     0.28720
H3887       H  0.98211800  0.38967056  0.77212092     0.19320
H3888       H  0.52003512  0.33796159  0.73082274     0.19320
C3889       C  0.91320755  0.47580777  0.88991014    -0.06510
C3890       C  0.93783059  0.47855551  0.88675170    -0.17640
C3891       C  0.94026304  0.45880788  0.87188978     0.10690
C3892       C  0.91770780  0.43628832  0.86002985    -0.06430
C3893       C  0.89326924  0.43415013  0.86222864    -0.17670
C3894       C  0.89064129  0.45302236  0.87818042     0.10720
S3895       S  0.97188733  0.46168985  0.86925088    -0.32630
S3896       S  0.85794867  0.44721088  0.88218319    -0.32640
H3897       H  0.86421012  0.46773857  0.90288750     0.28730
H3898       H  0.98492282  0.48300592  0.88964795     0.28720
H3899       H  0.95511003  0.49668195  0.89458325     0.19320
H3900       H  0.87583785  0.41617487  0.85418522     0.19320
C3901       C  0.91403495  0.18351943  0.88443637    -0.06510
C3902       C  0.89894162  0.18538378  0.86349552    -0.17640
C3903       C  0.89487400  0.20663184  0.86418028     0.10690
C3904       C  0.90629086  0.22678773  0.88612519    -0.06430
C3905       C  0.92052024  0.22473375  0.90749487    -0.17670
C3906       C  0.92480340  0.20361744  0.90698950     0.10720
S3907       S  0.87480251  0.20688572  0.83652487    -0.32630
S3908       S  0.94575844  0.20445520  0.93458963    -0.32640
H3909       H  0.94546859  0.22421106  0.95249921     0.28730
H3910       H  0.86621410  0.22209305  0.85179988     0.28720
H3911       H  0.88990499  0.17003796  0.84655372     0.19320
H3912       H  0.92979338  0.24071243  0.92378946     0.19320
C3913       C  0.56249121  0.47559783  0.88450226    -0.06510
C3914       C  0.55808859  0.46495529  0.85680510    -0.17640
C3915       C  0.53472725  0.44294979  0.84714189     0.10690
C3916       C  0.51483995  0.43207112  0.86517999    -0.06430
C3917       C  0.51813110  0.44399116  0.89207375    -0.17670
C3918       C  0.54193239  0.46545505  0.90216855     0.10720
S3919       S  0.53187109  0.42937299  0.81205117    -0.32630
S3920       S  0.54512000  0.47767596  0.93782740    -0.32640
H3921       H  0.56967325  0.98010982  0.94281403     0.28730
H3922       H  0.51676961  0.40308257  0.81685852     0.28720
H3923       H  0.57325489  0.47337293  0.84261998     0.19320
H3924       H  0.50240824  0.43579783  0.90564082     0.19320
C3925       C  0.81607755  0.22913748  0.88729987    -0.06510
C3926       C  0.80745111  0.21220986  0.86284238    -0.17640
C3927       C  0.78338964  0.18926154  0.86016515     0.10690
C3928       C  0.76770324  0.18235702  0.88298717    -0.06430
C3929       C  0.77718012  0.19901883  0.90789273    -0.17670
C3930       C  0.80082864  0.22243159  0.91011505     0.10720
S3931       S  0.77413606  0.17062379  0.82679903    -0.32630
S3932       S  0.80955579  0.24347685  0.94198657    -0.32640
H3933       H  0.81853435  0.26673507  0.92974147     0.28730
H3934       H  0.75052898  0.17065500  0.82434989     0.28720
H3935       H  0.81921941  0.21746788  0.84520027     0.19320
H3936       H  0.76586566  0.19426825  0.92584814     0.19320
C3937       C  0.86171798  0.33383174  0.98568266    -0.06510
C3938       C  0.83695199  0.31465692  0.99280059    -0.17640
C3939       C  0.82277228  0.32108246  0.51215320     0.10690
C3940       C  0.83278595  0.34748426  0.52329988    -0.06430
C3941       C  0.85730016  0.36617640  0.51615353    -0.17670
C3942       C  0.87224387  0.35961682  0.99908177     0.10720
S3943       S  0.79199029  0.29500095  0.52115258    -0.32630
S3944       S  0.90492564  0.38574356  0.99528560    -0.32640
H3945       H  0.91459127  0.36968043  0.98499453     0.28730
H3946       H  0.78240011  0.31084323  0.53263610     0.28720
H3947       H  0.82821638  0.29494091  0.98261005     0.19320
H3948       H  0.86547108  0.38626010  0.52492257     0.19320
C3949       C  0.85283686  0.37616718  0.73044876    -0.06510
C3950       C  0.85630983  0.35453821  0.72444422    -0.17640
C3951       C  0.86348449  0.34412783  0.74506865     0.10690
C3952       C  0.86656812  0.35507697  0.77254673    -0.06430
C3953       C  0.86227002  0.37613124  0.77871215    -0.17670
C3954       C  0.85566360  0.38688768  0.75797717     0.10720
S3955       S  0.87011907  0.31817881  0.73469820    -0.32630
S3956       S  0.85004774  0.41351888  0.76779438    -0.32640
H3957       H  0.87102790  0.43129065  0.75373737     0.28730
H3958       H  0.86493327  0.30707373  0.75953133     0.28720
H3959       H  0.85423567  0.34620041  0.70333420     0.19320
H3960       H  0.86488905  0.38478547  0.79977496     0.19320
O3961       O  0.86245858  0.82842465  0.30764531    -0.75680
O3962       O  0.90244377  0.86240100  0.29999400    -0.54580
C3963       C  0.87780728  0.84786728  0.29462719     0.78050
O3964       O  0.87816198  0.84850553  0.44466872    -0.60280
O3965       O  0.87817516  0.81155096  0.45340562    -0.53310
C3966       C  0.87312671  0.83031974  0.45961641     0.70070
O3967       O  0.90667475  0.90012670  0.38047649    -0.74840
O3968       O  0.92732747  0.90434857  0.34071265    -0.55400
C3969       C  0.91708448  0.91187028  0.35964338     0.76070
O3970       O  0.84023098  0.76590845  0.36529175    -0.59980
O3971       O  0.85680993  0.76389109  0.40672498    -0.53100
C3972       C  0.83933471  0.75468583  0.38668800     0.72660
Zr3973     Zr  0.86665968  0.80575684  0.34526330     2.54710
O3974       O  0.82517311  0.80412143  0.35082170    -0.80550
O3975       O  0.84829199  0.77101027  0.30723497    -0.93960
Zr3976     Zr  0.89858651  0.86381574  0.40363864     2.64680
O3977       O  0.85847841  0.86566460  0.40328558    -0.98920
O3978       O  0.92029040  0.90255949  0.43682067    -0.80980
O3979       O  0.88983148  0.85126582  0.35614344    -0.84340
O3980       O  0.87392525  0.81814386  0.39358512    -2.19050
O3981       O  0.91690930  0.76246933  0.36237824    -0.67730
O3982       O  0.90276211  0.76289651  0.40564203    -0.52290
C3983       C  0.90830528  0.75221757  0.38463810     0.71040
O3984       O  0.99163890  0.88723600  0.36736349    -0.60630
O3985       O  0.97250770  0.90494354  0.34463763    -0.52610
C3986       C  0.99182871  0.90675929  0.35829201     0.72850
O3987       O  0.97173351  0.84041559  0.43606289    -0.72030
O3988       O  0.93247437  0.81112347  0.45105284    -0.50710
C3989       C  0.95771605  0.82555887  0.45357513     0.74230
O3990       O  0.95952177  0.82553845  0.30706882    -0.67360
O3991       O  0.95415169  0.85987499  0.30046860    -0.54560
C3992       C  0.96416687  0.84538758  0.29459812     0.72610
Zr3993     Zr  0.93158777  0.80332486  0.34352878     2.77540
O3994       O  0.96908256  0.79701414  0.34529742    -0.98110
O3995       O  0.91055327  0.77033085  0.30424221    -0.78930
Zr3996     Zr  0.96395493  0.86229463  0.40181013     2.70070
O3997       O  0.00953439  0.87669759  0.41304879    -0.80180
O3998       O  0.97592248  0.90047993  0.43457993    -0.99260
Zr3999     Zr  0.93082539  0.86573905  0.33727221     2.21500
Zr4000     Zr  0.89979335  0.80237283  0.41328494     2.11130
O4001       O  0.94010880  0.81616347  0.39163629    -2.47950
O4002       O  0.95651416  0.84899690  0.35420202    -0.79970
O4003       O  0.89185737  0.78977709  0.36459598    -0.72160
O4004       O  0.93958360  0.88003237  0.38519938    -2.33120
O4005       O  0.90671610  0.81986741  0.32444241    -2.29330
O4006       O  0.92420138  0.84847895  0.42348925    -0.73920
H4007       H  0.85736907  0.81139515  0.40184677     0.78070
H4008       H  0.94936070  0.89884963  0.38892925     0.79160
H4009       H  0.94917510  0.80789895  0.39836106     0.81390
H4010       H  0.90421125  0.81585042  0.30474028     0.78990
H4011       H  0.90872695  0.91012219  0.43720539     0.42030
H4012       H  0.96094214  0.89532570  0.44620011     0.41000
H4013       H  0.51323341  0.86493090  0.40070582     0.40680
H4014       H  0.96984049  0.79209813  0.36386687     0.38610
H4015       H  0.91533698  0.78020129  0.28805043     0.41740
H4016       H  0.86242135  0.77560302  0.29450227     0.36530
H4017       H  0.82993212  0.82261086  0.35534341     0.42640
H4018       H  0.84461444  0.84794086  0.40656197     0.39060
H4019       H  0.96373833  0.78084386  0.33285337     0.43980
H4020       H  0.83526945  0.77367482  0.29752523     0.42700
H4021       H  0.86013458  0.87693287  0.42025109     0.42840
H4022       H  0.99004070  0.90193789  0.44680877     0.43190
O4023       O  0.92353129  0.65510038  0.40576389    -0.75680
O4024       O  0.91015500  0.64443395  0.36049297    -0.54580
C4025       C  0.91638548  0.65965773  0.38324824     0.78050
O4026       O  0.98992619  0.58377285  0.39515931    -0.60280
O4027       O  0.96794519  0.55918909  0.42926886    -0.53310
C4028       C  0.98779457  0.57000239  0.41469221     0.70070
O4029       O  0.97167232  0.61876054  0.32946928    -0.74840
O4030       O  0.93660127  0.62130995  0.31445790    -0.55400
C4031       C  0.95970783  0.62424986  0.31176422     0.76070
O4032       O  0.95634985  0.62598821  0.46532439    -0.59980
O4033       O  0.95175152  0.58606628  0.46899960    -0.53100
C4034       C  0.96170708  0.61066795  0.47712848     0.72660
Zr4035     Zr  0.93194942  0.62375790  0.42446150     2.54710
O4036       O  0.97150643  0.66628844  0.43202460    -0.80550
O4037       O  0.91030090  0.63456925  0.46101388    -0.93960
Zr4038     Zr  0.96424700  0.59767204  0.37047026     2.64680
O4039       O  0.00454339  0.63914174  0.38140895    -0.98920
O4040       O  0.98515611  0.57785713  0.34324645    -0.80980
O4041       O  0.94337144  0.62268017  0.37813417    -0.84340
O4042       O  0.95468856  0.60087514  0.41624008    -2.19050
O4043       O  0.85562075  0.52726242  0.44340555    -0.67730
O4044       O  0.89339616  0.52892553  0.45666536    -0.52290
C4045       C  0.86855387  0.51941984  0.45734614     0.71040
O4046       O  0.86484459  0.53425271  0.32137994    -0.60630
O4047       O  0.88548376  0.57299083  0.30497516    -0.52610
C4048       C  0.87120544  0.54784805  0.30123138     0.72850
O4049       O  0.90246889  0.50306620  0.37243299    -0.72030
O4050       O  0.92253677  0.51563777  0.41543823    -0.50710
C4051       C  0.91240265  0.49960943  0.39357498     0.74230
O4052       O  0.83857408  0.56989261  0.38070349    -0.67360
O4053       O  0.86028844  0.59496618  0.34647474    -0.54560
C4054       C  0.84006015  0.58269797  0.36032002     0.72610
Zr4055     Zr  0.86481968  0.55897876  0.40929719     2.77540
O4056       O  0.82083854  0.52195240  0.39940544    -0.98110
O4057       O  0.85098168  0.57955064  0.44536929    -0.78930
Zr4058     Zr  0.89595032  0.53430490  0.35306604     2.70070
O4059       O  0.86083331  0.98982444  0.33955921    -0.80180
O4060       O  0.91635378  0.52625909  0.31334335    -0.99260
Zr4061     Zr  0.90379667  0.60054349  0.34946978     2.21500
Zr4062     Zr  0.92635392  0.55779094  0.42743524     2.11130
O4063       O  0.88625150  0.53510810  0.39959951    -2.47950
O4064       O  0.87445438  0.55784448  0.36230938    -0.79970
O4065       O  0.90408947  0.58136754  0.43771910    -0.72160
O4066       O  0.92544352  0.57614869  0.34148633    -2.33120
O4067       O  0.89270071  0.60162050  0.39669763    -2.29330
O4068       O  0.93546204  0.55494566  0.38051300    -0.73920
H4069       H  0.97130908  0.60929948  0.42651155     0.78070
H4070       H  0.92887343  0.57467549  0.32250573     0.79160
H4071       H  0.87560685  0.51725634  0.40349251     0.81390
H4072       H  0.88343719  0.61107769  0.39939206     0.78990
H4073       H  0.97191351  0.55901906  0.34029486     0.42030
H4074       H  0.92138689  0.51365011  0.31872918     0.41000
H4075       H  0.84670292  0.48765151  0.35157577     0.40680
H4076       H  0.82302642  0.50644223  0.39694466     0.38610
H4077       H  0.85760260  0.57687710  0.46264078     0.41740
H4078       H  0.89604660  0.63547385  0.45150705     0.36530
H4079       H  0.98517407  0.66340811  0.42383163     0.42640
H4080       H  0.00985469  0.63891402  0.40050934     0.39060
H4081       H  0.81217018  0.52050507  0.41684127     0.43980
H4082       H  0.92296004  0.65291868  0.46804874     0.42700
H4083       H  0.51748248  0.63733529  0.37022162     0.42840
H4084       H  0.90181551  0.51601590  0.29925657     0.43190
O4085       O  0.50551993  0.90807675  0.13004579    -0.75680
O4086       O  0.52778410  0.93233040  0.17011517    -0.54580
C4087       C  0.50777517  0.92152760  0.15292462     0.78050
O4088       O  0.57640150  0.84044932  0.12727670    -0.60280
O4089       O  0.59104993  0.85196235  0.08491825    -0.53310
C4090       C  0.58542939  0.83712084  0.10460038     0.70070
O4091       O  0.53814470  0.86653242  0.19138697    -0.74840
O4092       O  0.54907773  0.90806164  0.20733918    -0.55400
C4093       C  0.53664421  0.88334717  0.20868490     0.76070
O4094       O  0.52218304  0.86634387  0.06297152    -0.59980
O4095       O  0.55933752  0.87168619  0.04411749    -0.53100
C4096       C  0.53443919  0.86326048  0.04302560     0.72660
Zr4097     Zr  0.53259884  0.89600410  0.10344851     2.54710
O4098       O  0.98903217  0.85851758  0.10453026    -0.80550
O4099       O  0.51868045  0.91559018  0.07058718    -0.93960
Zr4100     Zr  0.56308525  0.86834414  0.15136655     2.64680
O4101       O  0.52280778  0.82634338  0.14322217    -0.98920
O4102       O  0.58028052  0.85278881  0.18565619    -0.80980
O4103       O  0.54063513  0.89142634  0.14910820    -0.84340
O4104       O  0.55395846  0.87146289  0.10506976    -2.19050
O4105       O  0.61591545  0.96312520  0.06127365    -0.67730
O4106       O  0.61442313  0.92495698  0.04575756    -0.52290
C4107       C  0.62015450  0.94890633  0.04330352     0.71040
O4108       O  0.64025583  0.96388834  0.19407733    -0.60630
O4109       O  0.60254651  0.96181101  0.20712765    -0.52610
C4110       C  0.62727675  0.97096376  0.21024519     0.72850
O4111       O  0.65490261  0.91676514  0.12493864    -0.72030
O4112       O  0.63621572  0.89793095  0.08182140    -0.50710
C4113       C  0.65429339  0.90542577  0.10100255     0.74230
O4114       O  0.59406643  0.99313086  0.13627780    -0.67360
O4115       O  0.57410143  0.97641014  0.17496905    -0.54560
C4116       C  0.58444999  0.99465067  0.15938727     0.72610
Zr4117     Zr  0.59996328  0.96172262  0.10590128     2.77540
O4118       O  0.64306103  0.00070740  0.11051762    -0.98110
O4119       O  0.58146684  0.98099397  0.07795945    -0.78930
Zr4120     Zr  0.63105491  0.93311121  0.15265239     2.70070
O4121       O  0.67512863  0.96935434  0.15016260    -0.80180
O4122       O  0.64457083  0.91448534  0.18699509    -0.99260
Zr4123     Zr  0.56961717  0.93407532  0.17073326     2.21500
Zr4124     Zr  0.59374636  0.89498649  0.08251892     2.11130
O4125       O  0.62198360  0.93766027  0.10673084    -2.47950
O4126       O  0.61018754  0.95792385  0.15093751    -0.79970
O4127       O  0.57202878  0.91963476  0.08169165    -0.72160
O4128       O  0.59162098  0.91022546  0.17478614    -2.33120
O4129       O  0.55982487  0.93854088  0.12530733    -2.29330
O4130       O  0.60245844  0.89139144  0.12934533    -0.73920
H4131       H  0.54354404  0.85393043  0.09599163     0.78070
H4132       H  0.59501583  0.90922430  0.19379040     0.79160
H4133       H  0.63817736  0.94644085  0.09785874     0.81390
H4134       H  0.55105615  0.94845430  0.12478843     0.78990
H4135       H  0.58212234  0.86366069  0.20300471     0.42030
H4136       H  0.63505597  0.89546385  0.18107122     0.41000
H4137       H  0.67278802  0.98430788  0.14708642     0.40680
H4138       H  0.65471187  0.99507592  0.10186356     0.38610
H4139       H  0.56880026  0.96627528  0.06475449     0.41740
H4140       H  0.52183230  0.93228887  0.08050260     0.36530
H4141       H  0.99132768  0.84714339  0.11641746     0.42640
H4142       H  0.52430586  0.81814189  0.12534497     0.39060
H4143       H  0.64193939  0.51218514  0.09784624     0.43980
H4144       H  0.49946038  0.90444249  0.06873498     0.42700
H4145       H  0.52419596  0.81574681  0.15685068     0.42840
H4146       H  0.66302397  0.92027369  0.18373055     0.43190
O4147       O  0.65080522  0.61983494  0.33014316    -0.75680
O4148       O  0.68839798  0.62113854  0.31756704    -0.54580
C4149       C  0.66982284  0.62638096  0.31452251     0.78050
O4150       O  0.66747271  0.62541668  0.46315204    -0.60280
O4151       O  0.63344508  0.58499945  0.46790966    -0.53310
C4152       C  0.64714810  0.60991245  0.47509145     0.70070
O4153       O  0.72965233  0.65516215  0.40439893    -0.74840
O4154       O  0.73444603  0.64085873  0.36147283    -0.55400
C4155       C  0.74219472  0.65796347  0.38258652     0.76070
O4156       O  0.59239417  0.57861543  0.39021763    -0.59980
O4157       O  0.59164961  0.55816927  0.42773964    -0.53100
C4158       C  0.58171805  0.56701115  0.41130673     0.72660
Zr4159     Zr  0.63276949  0.59328165  0.36716775     2.54710
O4160       O  0.62857126  0.63178181  0.37792201    -0.80550
O4161       O  0.59778928  0.57387139  0.33114707    -0.93960
Zr4162     Zr  0.69084883  0.62311781  0.42384995     2.64680
O4163       O  0.69387711  0.66572922  0.42879931    -0.98920
O4164       O  0.72338622  0.63601540  0.46146961    -0.80980
O4165       O  0.67842261  0.61952612  0.37680553    -0.84340
O4166       O  0.64529863  0.59844277  0.41384470    -2.19050
O4167       O  0.60715771  0.49689484  0.38020448    -0.67730
O4168       O  0.59199421  0.51587846  0.41104837    -0.52290
C4169       C  0.58868993  0.49729203  0.39294855     0.71040
O4170       O  0.73357648  0.57009259  0.38575124    -0.60630
O4171       O  0.73593064  0.59351445  0.35017673    -0.52610
C4172       C  0.74461649  0.58241115  0.36505151     0.72850
O4173       O  0.67424637  0.52973570  0.44865926    -0.72030
O4174       O  0.63585567  0.52818352  0.45838780    -0.50710
C4175       C  0.65307413  0.52121192  0.46165284     0.74230
O4176       O  0.67338460  0.53254455  0.32695468    -0.67360
O4177       O  0.68932247  0.56995883  0.30817440    -0.54560
C4178       C  0.67945831  0.54503304  0.30595621     0.72610
Zr4179     Zr  0.63917777  0.53018159  0.35514450     2.77540
O4180       O  0.63053632  0.98768532  0.33369709    -0.98110
O4181       O  0.60749881  0.52145865  0.31793926    -0.78930
Zr4182     Zr  0.69581936  0.55946098  0.41308504     2.70070
O4183       O  0.70352333  0.52279346  0.40765508    -0.80180
O4184       O  0.73029575  0.58236734  0.44941167    -0.99260
Zr4185     Zr  0.69723124  0.59750697  0.35151128     2.21500
Zr4186     Zr  0.63147245  0.55617132  0.42738595     2.11130
O4187       O  0.65051334  0.53377022  0.40253337    -2.47950
O4188       O  0.68444894  0.55543512  0.36559038    -0.79970
O4189       O  0.61944367  0.55127208  0.37972898    -0.72160
O4190       O  0.70970619  0.60136971  0.39919967    -2.33120
O4191       O  0.65130966  0.57165769  0.34109439    -2.29330
O4192       O  0.67730504  0.58149209  0.43875111    -0.73920
H4193       H  0.63655078  0.60664609  0.42313642     0.78070
H4194       H  0.72840892  0.61147869  0.40239386     0.79160
H4195       H  0.64486062  0.51668260  0.40804062     0.81390
H4196       H  0.64702588  0.57023162  0.32174611     0.78990
H4197       H  0.73901313  0.63778411  0.45254542     0.42030
H4198       H  0.72174792  0.58597896  0.46509544     0.41000
H4199       H  0.69153055  0.51116910  0.39192656     0.40680
H4200       H  0.63030316  0.97783826  0.34899391     0.38610
H4201       H  0.59234938  0.52048282  0.32726514     0.41740
H4202       H  0.60597373  0.57184798  0.31429988     0.36530
H4203       H  0.64664968  0.64622232  0.38263176     0.42640
H4204       H  0.67565714  0.66190677  0.42975173     0.39060
H4205       H  0.61232799  0.97862013  0.32589422     0.43980
H4206       H  0.59402792  0.58796188  0.32823769     0.42700
H4207       H  0.70196302  0.67363499  0.44749713     0.42840
H4208       H  0.73391967  0.56884638  0.45499819     0.43190
O4209       O  0.53863428  0.67917718  0.21124547    -0.75680
O4210       O  0.54735696  0.64896274  0.22591616    -0.54580
C4211       C  0.53469243  0.66144019  0.22704803     0.78050
O4212       O  0.52710932  0.65525043  0.08815912    -0.60280
O4213       O  0.56515077  0.67554618  0.06750908    -0.53310
C4214       C  0.54002853  0.66186436  0.06689672     0.70070
O4215       O  0.50752277  0.61369938  0.16171285    -0.74840
O4216       O  0.52811177  0.59960653  0.18784370    -0.55400
C4217       C  0.50789196  0.59568225  0.17375768     0.76070
O4218       O  0.58004962  0.73714587  0.14730735    -0.59980
O4219       O  0.59213345  0.73058304  0.10443438    -0.53100
C4220       C  0.58692097  0.74377367  0.12292899     0.72660
Zr4221     Zr  0.56988709  0.70114646  0.17598168     2.54710
O4222       O  0.53657125  0.71361568  0.17745911    -0.80550
O4223       O  0.59426093  0.73594768  0.21289385    -0.93960
Zr4224     Zr  0.53455175  0.63584097  0.12521287     2.64680
O4225       O  0.98808249  0.61908670  0.11609762    -0.98920
O4226       O  0.52346380  0.59679729  0.09398811    -0.80980
O4227       O  0.54525173  0.65488017  0.17110776    -0.84340
O4228       O  0.55848247  0.68247245  0.12951264    -2.19050
O4229       O  0.66175903  0.73334378  0.14657214    -0.67730
O4230       O  0.64150277  0.73133535  0.10601440    -0.52290
C4231       C  0.66128145  0.74228022  0.12364738     0.71040
O4232       O  0.59159159  0.59818621  0.14790773    -0.60630
O4233       O  0.57167021  0.59818838  0.18744791    -0.52610
C4234       C  0.58108807  0.58829502  0.16958258     0.72850
O4235       O  0.61443099  0.64340971  0.07933515    -0.72030
O4236       O  0.61365126  0.67881118  0.06637401    -0.50710
C4237       C  0.61714367  0.65903028  0.06187378     0.74230
O4238       O  0.64281114  0.67722253  0.21302050    -0.67360
O4239       O  0.60376637  0.64546756  0.22605435    -0.54560
C4240       C  0.62895905  0.65886631  0.22819978     0.72610
Zr4241     Zr  0.63495565  0.69836825  0.17525612     2.77540
O4242       O  0.67868505  0.70438711  0.17552039    -0.98110
O4243       O  0.64934552  0.73490429  0.21092328    -0.78930
Zr4244     Zr  0.60014318  0.63427332  0.12404995     2.70070
O4245       O  0.64232742  0.63674963  0.12626284    -0.80180
O4246       O  0.58010441  0.59329693  0.09391479    -0.99260
Zr4247     Zr  0.57086500  0.63916315  0.19104266     2.21500
Zr4248     Zr  0.59789379  0.69344970  0.10677537     2.11130
O4249       O  0.62516424  0.68022196  0.12825788    -2.47950
O4250       O  0.61096966  0.65219112  0.17023529    -0.79970
O4251       O  0.60897066  0.71267247  0.15378467    -0.72160
O4252       O  0.56016265  0.62060013  0.14443816    -2.33120
O4253       O  0.59551910  0.68616149  0.19755586    -2.29330
O4254       O  0.57331022  0.64712686  0.10261755    -0.73920
H4255       H  0.54905060  0.68992639  0.12172244     0.78070
H4256       H  0.55026657  0.60177691  0.14297636     0.79160
H4257       H  0.64101984  0.68561212  0.11886520     0.81390
H4258       H  0.59907122  0.69240433  0.21686917     0.78990
H4259       H  0.52218930  0.58337094  0.10536524     0.42030
H4260       H  0.57012919  0.59568471  0.07931934     0.41000
H4261       H  0.65056644  0.64650580  0.14438720     0.40680
H4262       H  0.68219311  0.70285698  0.15594259     0.38610
H4263       H  0.64450521  0.74680675  0.20316210     0.41740
H4264       H  0.58341568  0.73027854  0.22884039     0.36530
H4265       H  0.52220401  0.70002630  0.16470734     0.42640
H4266       H  0.98606022  0.63470223  0.11741349     0.39060
H4267       H  0.69039234  0.72304927  0.18224408     0.43980
H4268       H  0.59281748  0.75090145  0.20770340     0.42700
H4269       H  0.98431996  0.61215092  0.09644167     0.42840
H4270       H  0.59469758  0.59293049  0.08464522     0.43190
O4271       O  0.82425321  0.96538846  0.18917676    -0.75680
O4272       O  0.86175081  0.96591619  0.20154948    -0.54580
C4273       C  0.84493542  0.97348904  0.20502097     0.78050
O4274       O  0.77823440  0.83669040  0.11274170    -0.60280
O4275       O  0.76067175  0.85109559  0.08293616    -0.53310
C4276       C  0.75857095  0.83395210  0.09868864     0.70070
O4277       O  0.82742352  0.87022682  0.19044680    -0.74840
O4278       O  0.86111154  0.91118085  0.20454065    -0.55400
C4279       C  0.84646868  0.88675515  0.20735740     0.76070
O4280       O  0.76393176  0.92147331  0.11841495    -0.59980
O4281       O  0.76058814  0.89789920  0.07734299    -0.53100
C4282       C  0.75175407  0.90817531  0.09550616     0.72660
Zr4283     Zr  0.80402357  0.93642867  0.14627047     2.54710
O4284       O  0.76978354  0.92075382  0.17847025    -0.80550
O4285       O  0.80176060  0.97551737  0.14056046    -0.93960
Zr4286     Zr  0.80462645  0.87101157  0.14924902     2.64680
O4287       O  0.76823911  0.86560261  0.17625711    -0.98920
O4288       O  0.79161263  0.82750435  0.16130112    -0.80980
O4289       O  0.82009668  0.91403953  0.17062237    -0.84340
O4290       O  0.78777671  0.89296214  0.12571747    -2.19050
O4291       O  0.84382809  0.96199944  0.05546981    -0.67730
O4292       O  0.80853082  0.92219601  0.04027360    -0.52290
C4293       C  0.82573830  0.94640086  0.03746661     0.71040
O4294       O  0.90002614  0.90541771  0.13062956    -0.60630
O4295       O  0.90447930  0.93285593  0.16880578    -0.52610
C4296       C  0.91213071  0.91994830  0.15295524     0.72850
O4297       O  0.83092481  0.85610347  0.07065818    -0.72030
O4298       O  0.80979620  0.86856834  0.04307346    -0.50710
C4299       C  0.82253932  0.85658856  0.04679344     0.74230
O4300       O  0.90214081  0.99173940  0.12501597    -0.67360
O4301       O  0.90561729  0.97848470  0.16600564    -0.54560
C4302       C  0.91441691  0.99481942  0.14799014     0.72610
Zr4303     Zr  0.86236083  0.96023932  0.09808514     2.77540
O4304       O  0.89624230  0.97201660  0.06550257    -0.98110
O4305       O  0.86427471  0.00224855  0.10039031    -0.78930
Zr4306     Zr  0.86257529  0.89474429  0.10021370     2.70070
O4307       O  0.89299756  0.91504147  0.06520495    -0.80180
O4308       O  0.87800251  0.86368361  0.09317194    -0.99260
Zr4309     Zr  0.86600124  0.93653874  0.16643488     2.21500
Zr4310     Zr  0.79978257  0.89416202  0.07870350     2.11130
O4311       O  0.84631926  0.91713016  0.07622622    -2.47950
O4312       O  0.87924463  0.93805645  0.12066287    -0.79970
O4313       O  0.81640154  0.93794336  0.10018042    -0.72160
O4314       O  0.85046291  0.89269684  0.14615225    -2.33120
O4315       O  0.84974570  0.95961288  0.14347021    -2.29330
O4316       O  0.81680567  0.87203579  0.10317694    -0.73920
H4317       H  0.76906292  0.88329583  0.12632252     0.78070
H4318       H  0.85808672  0.88411220  0.15518191     0.79160
H4319       H  0.85073748  0.91744442  0.05731223     0.81390
H4320       H  0.85720241  0.97746357  0.15167845     0.78990
H4321       H  0.80417733  0.82317560  0.15259931     0.42030
H4322       H  0.86385288  0.84719319  0.09898287     0.41000
H4323       H  0.90931734  0.92844328  0.07563643     0.40680
H4324       H  0.88829762  0.95844053  0.04959768     0.38610
H4325       H  0.84582320  0.99783014  0.10021275     0.41740
H4326       H  0.81971779  0.99018789  0.14531568     0.36530
H4327       H  0.76574278  0.93499994  0.18191869     0.42640
H4328       H  0.75288240  0.85832249  0.16311588     0.39060
H4329       H  0.89811032  0.98796050  0.05860553     0.43980
H4330       H  0.79156163  0.97690371  0.15583369     0.42700
H4331       H  0.76470010  0.85116378  0.18725899     0.42840
H4332       H  0.87782813  0.86015189  0.07302351     0.43190
C4333       C  0.94004916  0.51928595  0.15418575    -0.06510
C4334       C  0.95108146  0.52719578  0.18133099    -0.17640
C4335       C  0.97346487  0.55166563  0.18855487     0.10690
C4336       C  0.98465260  0.56919699  0.16864626    -0.06430
C4337       C  0.97420935  0.56086454  0.14153260    -0.17670
C4338       C  0.95314398  0.53599911  0.13384906     0.10720
S4339       S  0.98600138  0.55989941  0.22355225    -0.32630
S4340       S  0.94560762  0.52669931  0.09746658    -0.32640
H4341       H  0.94240840  0.00169833  0.09871258     0.28730
H4342       H  0.48989523  0.58519949  0.22408579     0.28720
H4343       H  0.94191220  0.51461233  0.19723822     0.19320
H4344       H  0.98321906  0.57355892  0.12574590     0.19320
C4345       C  0.68538900  0.76672792  0.11715162    -0.06510
C4346       C  0.68925225  0.77328086  0.08989595    -0.17640
C4347       C  0.71248367  0.79503465  0.08275343     0.10690
C4348       C  0.73278861  0.81064004  0.10311462    -0.06430
C4349       C  0.72860480  0.80423347  0.13016535    -0.17670
C4350       C  0.70529524  0.78353643  0.13755011     0.10720
S4351       S  0.71535584  0.80099140  0.04730055    -0.32630
S4352       S  0.70205339  0.78125235  0.17384219    -0.32640
H4353       H  0.67696710  0.77823092  0.17288650     0.28730
H4354       H  0.74220604  0.81002130  0.04731177     0.28720
H4355       H  0.67433322  0.76106874  0.07382489     0.19320
H4356       H  0.74352252  0.81613404  0.14626157     0.19320
C4357       C  0.64268013  0.65145481  0.24869313    -0.06510
C4358       C  0.66469573  0.67048825  0.26548553    -0.17640
C4359       C  0.67618558  0.66338640  0.28612110     0.10690
C4360       C  0.66631489  0.63662664  0.28928792    -0.06430
C4361       C  0.64566302  0.61797788  0.27148324    -0.17670
C4362       C  0.63369834  0.62491520  0.25209261     0.10720
S4363       S  0.70227549  0.68922795  0.30848694    -0.32630
S4364       S  0.60708608  0.59827903  0.23207773    -0.32640
H4365       H  0.61880443  0.60923099  0.20829167     0.28730
H4366       H  0.71057865  0.67362925  0.31997094     0.28720
H4367       H  0.67222198  0.69098071  0.26344572     0.19320
H4368       H  0.63751804  0.59741542  0.27391505     0.19320
C4369       C  0.63845563  0.62279738  0.49686587    -0.06510
C4370       C  0.65487745  0.64988971  0.00525639    -0.17640
C4371       C  0.64744193  0.66375292  0.02427744     0.10690
C4372       C  0.62267201  0.65073139  0.03476600    -0.06430
C4373       C  0.60574025  0.62428674  0.02523777    -0.17670
C4374       C  0.61356302  0.61000238  0.00765046     0.10720
S4375       S  0.67112795  0.69720907  0.03613967    -0.32630
S4376       S  0.59177319  0.57518384  0.50287241    -0.32640
H4377       H  0.58764519  0.57473720  0.47475912     0.28730
H4378       H  0.65287230  0.70543349  0.04052515     0.28720
H4379       H  0.67408080  0.66044084  0.49752306     0.19320
H4380       H  0.58696162  0.61385711  0.03398217     0.19320
C4381       C  0.63325436  0.96336953  0.01932748    -0.06510
C4382       C  0.65352150  0.98952427  0.02588126    -0.17640
C4383       C  0.66072302  0.50844067  0.00749576     0.10690
C4384       C  0.64785913  0.50143252  0.48116581    -0.06430
C4385       C  0.62879226  0.97498432  0.47374305    -0.17670
C4386       C  0.62156207  0.95598245  0.49234602     0.10720
S4387       S  0.68405771  0.54178843  0.02040507    -0.32630
S4388       S  0.59581767  0.92323833  0.48133864    -0.32640
H4389       H  0.60715827  0.91124460  0.99505363     0.28730
H4390       H  0.69503212  0.54985578  0.99545665     0.28720
H4391       H  0.66247200  0.49587668  0.04657638     0.19320
H4392       H  0.61891534  0.96920339  0.45350463     0.19320
C4393       C  0.64198231  0.99127361  0.23386130    -0.06510
C4394       C  0.66243213  0.99091325  0.24818214    -0.17640
C4395       C  0.67646479  0.00933213  0.27087466     0.10690
C4396       C  0.67089116  0.52942702  0.27883308    -0.06430
C4397       C  0.65148482  0.53059722  0.26377728    -0.17670
C4398       C  0.63654252  0.51148410  0.24220313     0.10720
S4399       S  0.70080004  0.00586485  0.28924132    -0.32630
S4400       S  0.61037860  0.51388236  0.22695894    -0.32640
H4401       H  0.59111666  0.49146863  0.23774331     0.28730
H4402       H  0.71570133  0.03219083  0.30033020     0.28720
H4403       H  0.66695748  0.97566129  0.24224669     0.19320
H4404       H  0.64644978  0.54539338  0.27029767     0.19320
C4405       C  0.58507088  0.51910328  0.16828217    -0.06510
C4406       C  0.56213445  0.51834933  0.17675213    -0.17640
C4407       C  0.56010885  0.54089702  0.17870607     0.10690
C4408       C  0.58199120  0.56468014  0.17367737    -0.06430
C4409       C  0.60573849  0.56568259  0.16861898    -0.17670
C4410       C  0.60755127  0.54326172  0.16596450     0.10720
S4411       S  0.52873944  0.53754185  0.18479393    -0.32630
S4412       S  0.63898479  0.54681143  0.15923725    -0.32640
H4413       H  0.63502747  0.52469824  0.17138943     0.28730
H4414       H  0.53004711  0.55408393  0.16540490     0.28720
H4415       H  0.54514107  0.99987392  0.17978730     0.19320
H4416       H  0.62289714  0.58410949  0.16559541     0.19320
C4417       C  0.58961401  0.76870342  0.11571911    -0.06510
C4418       C  0.57690727  0.76902188  0.09147785    -0.17640
C4419       C  0.57676844  0.79172128  0.08550716     0.10690
C4420       C  0.59043405  0.81495059  0.10364318    -0.06430
C4421       C  0.60471668  0.81486607  0.12665079    -0.17670
C4422       C  0.60464988  0.79233853  0.13273618     0.10720
S4423       S  0.55745723  0.78914143  0.05563233    -0.32630
S4424       S  0.62400875  0.79506015  0.16273616    -0.32640
H4425       H  0.63081340  0.77666241  0.15186023     0.28730
H4426       H  0.54952620  0.80657105  0.06662018     0.28720
H4427       H  0.56577553  0.75109928  0.07790578     0.19320
H4428       H  0.61493482  0.83233774  0.14103478     0.19320
C4429       C  0.67632510  0.90085722  0.09600217    -0.06510
C4430       C  0.69050271  0.90882994  0.07252937    -0.17640
C4431       C  0.71472668  0.91002990  0.07041479     0.10690
C4432       C  0.72469549  0.90281530  0.09216099    -0.06430
C4433       C  0.70916380  0.89240864  0.11413438    -0.17670
C4434       C  0.68518504  0.89121929  0.11625982     0.10720
S4435       S  0.73221468  0.92223076  0.04037861    -0.32630
S4436       S  0.66631872  0.87770160  0.14528736    -0.32640
H4437       H  0.68231546  0.86923687  0.15650705     0.28730
H4438       H  0.75725873  0.93196035  0.05246457     0.28720
H4439       H  0.68355402  0.91579083  0.05665086     0.19320
H4440       H  0.71647768  0.88615331  0.13039336     0.19320
C4441       C  0.93759568  0.92319084  0.15953281    -0.06510
C4442       C  0.95897155  0.94380356  0.14896513    -0.17640
C4443       C  0.98288514  0.94476109  0.14820256     0.10690
C4444       C  0.98561335  0.92497976  0.15901510    -0.06430
C4445       C  0.96442435  0.90491523  0.17062003    -0.17670
C4446       C  0.94042065  0.90388773  0.17109806     0.10720
S4447       S  0.50768542  0.96970222  0.12990113    -0.32630
S4448       S  0.91368136  0.87651626  0.18467874    -0.32640
H4449       H  0.89962822  0.88923890  0.19176363     0.28730
H4450       H  0.52888517  0.96885878  0.14120437     0.28720
H4451       H  0.95647078  0.95821861  0.13940629     0.19320
H4452       H  0.96604685  0.88904824  0.17776013     0.19320
C4453       C  0.98254269  0.62343616  0.49991488    -0.06510
C4454       C  0.99753268  0.65114005  0.00366045    -0.17640
C4455       C  0.51773064  0.66472191  0.02419887     0.10690
C4456       C  0.52397428  0.65047531  0.04099627    -0.06430
C4457       C  0.50983239  0.62304062  0.03677111    -0.17670
C4458       C  0.98926135  0.60940716  0.01684653     0.10720
S4459       S  0.53394693  0.69997802  0.02829265    -0.32630
S4460       S  0.97157483  0.57431628  0.51571373    -0.32640
H4461       H  0.98029273  0.57060494  0.49002624     0.28730
H4462       H  0.54257252  0.70408823  0.05596987     0.28720
H4463       H  0.99332060  0.66259621  0.49079256     0.19320
H4464       H  0.51417721  0.61198740  0.05007452     0.19320
C4465       C  0.97422312  0.63218427  0.28626560    -0.06510
C4466       C  0.97940681  0.65484678  0.27437770    -0.17640
C4467       C  0.99808415  0.66469504  0.25419147     0.10690
C4468       C  0.51344752  0.65289383  0.24719309    -0.06430
C4469       C  0.50754164  0.63018539  0.25915953    -0.17670
C4470       C  0.98753809  0.61907684  0.27667120     0.10720
S4471       S  0.00162968  0.69244014  0.23877650    -0.32630
S4472       S  0.98016492  0.58758965  0.28596408    -0.32640
H4473       H  0.95336575  0.57793627  0.28671965     0.28730
H4474       H  0.49603404  0.67931383  0.21205949     0.28720
H4475       H  0.96934219  0.66515889  0.28110750     0.19320
H4476       H  0.51820051  0.62008760  0.25439463     0.19320
C4477       C  0.85384777  0.49749112  0.47484839    -0.06510
C4478       C  0.83356407  0.49659034  0.99029316    -0.17640
C4479       C  0.82140401  0.97806671  0.00922059     0.10690
C4480       C  0.82792869  0.95829610  0.01147199    -0.06430
C4481       C  0.84639717  0.95780580  0.99410941    -0.17670
C4482       C  0.85981431  0.97730792  0.47674446     0.10720
S4483       S  0.79891909  0.48198233  0.03093999    -0.32630
S4484       S  0.88522901  0.97579678  0.45847395    -0.32160
H4485       H  0.90504184  0.99646587  0.47608117     0.28730
H4486       H  0.80004885  0.96839298  0.05228603     0.28720
H4487       H  0.82842274  0.51160104  0.98911184     0.19320
H4488       H  0.85254030  0.94363176  0.99624447     0.19320
C4489       C  0.85017568  0.99364744  0.22839316    -0.06510
C4490       C  0.87349025  0.51782002  0.23011995    -0.17640
C4491       C  0.87948273  0.53745775  0.25192161     0.10690
C4492       C  0.86237705  0.53266144  0.27340364    -0.06430
C4493       C  0.83854806  0.00874100  0.27092451    -0.17670
C4494       C  0.83225124  0.98937439  0.24872350     0.10720
S4495       S  0.91002724  0.56742355  0.25198035    -0.32630
S4496       S  0.80235193  0.95834487  0.24775832    -0.32640
H4497       H  0.79254031  0.96455127  0.27150591     0.28730
H4498       H  0.89901231  0.58337805  0.25763743     0.28720
H4499       H  0.88717423  0.52144988  0.21429082     0.19320
H4500       H  0.82539217  0.00465215  0.28732053     0.19320
C4501       C  0.50962937  0.56556646  0.41909931    -0.06510
C4502       C  0.51151788  0.54796721  0.39946853    -0.17640
C4503       C  0.53434212  0.54674497  0.39784846     0.10690
C4504       C  0.55587022  0.56346597  0.41629244    -0.06430
C4505       C  0.55370603  0.58035304  0.43667659    -0.17670
C4506       C  0.53083561  0.58168579  0.43829348     0.10720
S4507       S  0.53566155  0.52519637  0.37025951    -0.32630
S4508       S  0.53125883  0.60593679  0.46375669    -0.32640
H4509       H  0.00720427  0.60339356  0.45626628     0.28730
H4510       H  0.55399758  0.52107025  0.38376903     0.28720
H4511       H  0.49558783  0.53614524  0.38421132     0.19320
H4512       H  0.57056227  0.59405837  0.45006907     0.19320
C4513       C  0.81655053  0.58385195  0.35358399    -0.06510
C4514       C  0.81684843  0.60730663  0.36131311    -0.17640
C4515       C  0.79355920  0.60763168  0.36420834     0.10690
C4516       C  0.76949605  0.58411589  0.35851145    -0.06430
C4517       C  0.76929838  0.56108102  0.34879761    -0.17670
C4518       C  0.79257870  0.56076678  0.34608155     0.10720
S4519       S  0.79594144  0.63809766  0.37760318    -0.32630
S4520       S  0.79057892  0.53013229  0.33421306    -0.32640
H4521       H  0.81561748  0.54116452  0.32415126     0.28730
H4522       H  0.77444353  0.62713671  0.39387930     0.28720
H4523       H  0.83522297  0.62498730  0.36750184     0.19320
H4524       H  0.75087709  0.54305685  0.34415594     0.19320
C4525       C  0.97288474  0.82990425  0.47949532    -0.06510
C4526       C  0.98729181  0.81719155  0.48272281    -0.17640
C4527       C  0.50883465  0.82770627  0.00225799     0.10690
C4528       C  0.51746350  0.85250963  0.01717731    -0.06430
C4529       C  0.50361538  0.86539290  0.01249749    -0.17670
C4530       C  0.98093890  0.85380468  0.49559612     0.10720
S4531       S  0.52381100  0.80841983  0.00735318    -0.32630
S4532       S  0.96337563  0.87118143  0.49469272    -0.32640
H4533       H  0.93886799  0.84847893  0.48908638     0.28730
H4534       H  0.54821325  0.82930591  0.01756058     0.28720
H4535       H  0.98207770  0.79934685  0.46967004     0.19320
H4536       H  0.50948729  0.88418931  0.02391204     0.19320
C4537       C  0.98300561  0.85365441  0.27266088    -0.06510
C4538       C  0.99019910  0.87794720  0.26358753    -0.17640
C4539       C  0.00758744  0.88800070  0.24344110     0.10690
C4540       C  0.51872301  0.87366049  0.23113324    -0.06430
C4541       C  0.51170580  0.84924969  0.23994624    -0.17670
C4542       C  0.99432009  0.83926101  0.26073825     0.10720
S4543       S  0.01258608  0.91836523  0.23322373    -0.32630
S4544       S  0.98743556  0.80817470  0.27066151    -0.32640
H4545       H  0.99788454  0.81875375  0.29768604     0.28730
H4546       H  0.50354853  0.90636978  0.20648623     0.28720
H4547       H  0.98211868  0.88966915  0.27212071     0.19320
H4548       H  0.52003660  0.83796079  0.23082304     0.19320
C4549       C  0.91321734  0.97581231  0.38991376    -0.06510
C4550       C  0.93784012  0.97855933  0.38675566    -0.17640
C4551       C  0.94027203  0.95881130  0.37189367     0.10690
C4552       C  0.91771659  0.93629259  0.36003254    -0.06430
C4553       C  0.89327843  0.93415535  0.36223098    -0.17670
C4554       C  0.89065090  0.95302733  0.37818373     0.10720
S4555       S  0.97189571  0.96169169  0.36925597    -0.32630
S4556       S  0.85795854  0.94721634  0.38218706    -0.32640
H4557       H  0.86422047  0.96774360  0.40289208     0.28730
H4558       H  0.98493095  0.98300658  0.38965440     0.28720
H4559       H  0.95511975  0.99668535  0.39458775     0.19320
H4560       H  0.87584679  0.91618066  0.35418683     0.19320
C4561       C  0.91403570  0.68351991  0.38443587    -0.06510
C4562       C  0.89893965  0.68538292  0.36349700    -0.17640
C4563       C  0.89487160  0.70663072  0.36418257     0.10690
C4564       C  0.90629057  0.72678752  0.38612636    -0.06430
C4565       C  0.92052285  0.72473497  0.40749413    -0.17670
C4566       C  0.92480666  0.70361901  0.40698777     0.10720
S4567       S  0.87479710  0.70688332  0.33652951    -0.32630
S4568       S  0.94576580  0.70445850  0.43458449    -0.32640
H4569       H  0.94547875  0.72421577  0.45249432     0.28730
H4570       H  0.86621069  0.72209188  0.35180558     0.28720
H4571       H  0.88990121  0.67003624  0.34655621     0.19320
H4572       H  0.92979773  0.74071448  0.42378765     0.19320
C4573       C  0.56249294  0.97559714  0.38450231    -0.06510
C4574       C  0.55808957  0.96495559  0.35680476    -0.17640
C4575       C  0.53472866  0.94294932  0.34714195     0.10690
C4576       C  0.51484256  0.93206877  0.36518104    -0.06430
C4577       C  0.51813442  0.94398761  0.39207549    -0.17670
C4578       C  0.54193528  0.96545242  0.40216972     0.10720
S4579       S  0.53187159  0.92937386  0.31205052    -0.32630
S4580       S  0.54512400  0.97767219  0.43782911    -0.32640
H4581       H  0.56966793  0.48011125  0.44281453     0.28730
H4582       H  0.51677210  0.90308308  0.31685742     0.28720
H4583       H  0.57325505  0.97337466  0.34261903     0.19320
H4584       H  0.50241240  0.93579300  0.40564328     0.19320
C4585       C  0.81607580  0.72913862  0.38729922    -0.06510
C4586       C  0.80744898  0.71221094  0.36284177    -0.17640
C4587       C  0.78338746  0.68926264  0.36016481     0.10690
C4588       C  0.76770127  0.68235819  0.38298702    -0.06430
C4589       C  0.77717836  0.69902021  0.40789243    -0.17670
C4590       C  0.80082699  0.72243292  0.41011451     0.10720
S4591       S  0.77413359  0.67062470  0.32679879    -0.32630
S4592       S  0.80955451  0.74347831  0.44198597    -0.32640
H4593       H  0.81853370  0.76673659  0.42974082     0.28730
H4594       H  0.75052636  0.67065565  0.32434996     0.28720
H4595       H  0.81921713  0.71746879  0.34519954     0.19320
H4596       H  0.76586404  0.69426975  0.42584794     0.19320
C4597       C  0.86171823  0.83383282  0.48568190    -0.06510
C4598       C  0.83695260  0.81465757  0.49280016    -0.17640
C4599       C  0.82277268  0.82108268  0.01215285     0.10690
C4600       C  0.83278557  0.84748448  0.02329907    -0.06430
C4601       C  0.85729934  0.86617712  0.01615226    -0.17670
C4602       C  0.87224353  0.85961793  0.49908075     0.10720
S4603       S  0.79199134  0.79500064  0.02115288    -0.32630
S4604       S  0.90492523  0.88574499  0.49528511    -0.32640
H4605       H  0.91459146  0.86968196  0.48499543     0.28730
H4606       H  0.78240031  0.81084237  0.03263584     0.28720
H4607       H  0.82821750  0.79494149  0.48260995     0.19320
H4608       H  0.86546970  0.88626085  0.02492101     0.19320
C4609       C  0.85283791  0.87616718  0.23044805    -0.06510
C4610       C  0.85631058  0.85453800  0.22444371    -0.17640
C4611       C  0.86348598  0.84412820  0.24506815     0.10690
C4612       C  0.86657070  0.85507820  0.27254605    -0.06430
C4613       C  0.86227299  0.87613274  0.27871127    -0.17670
C4614       C  0.85566582  0.88688857  0.25797628     0.10720
S4615       S  0.87012011  0.81817884  0.23469777    -0.32630
S4616       S  0.85005046  0.91352013  0.26779323    -0.32640
H4617       H  0.87103119  0.93129166  0.25373666     0.28730
H4618       H  0.86493599  0.80707479  0.25953146     0.28720
H4619       H  0.85423566  0.84619963  0.20333380     0.19320
H4620       H  0.86489271  0.88478753  0.29977395     0.19320
O4621       O  0.86245858  0.82842464  0.80764532    -0.75680
O4622       O  0.90244376  0.86240098  0.79999399    -0.54580
C4623       C  0.87780727  0.84786726  0.79462719     0.78050
O4624       O  0.87816198  0.84850553  0.94466872    -0.60280
O4625       O  0.87817516  0.81155097  0.95340563    -0.53310
C4626       C  0.87312671  0.83031975  0.95961642     0.70070
O4627       O  0.90667473  0.90012670  0.88047647    -0.74840
O4628       O  0.92732746  0.90434857  0.84071264    -0.55400
C4629       C  0.91708447  0.91187027  0.85964336     0.76070
O4630       O  0.84023099  0.76590844  0.86529175    -0.59980
O4631       O  0.85680994  0.76389109  0.90672499    -0.53100
C4632       C  0.83933472  0.75468583  0.88668800     0.72660
Zr4633     Zr  0.86665968  0.80575683  0.84526330     2.54710
O4634       O  0.82517310  0.80412140  0.85082170    -0.80550
O4635       O  0.84829201  0.77101027  0.80723496    -0.93960
Zr4636     Zr  0.89858649  0.86381574  0.90363863     2.64680
O4637       O  0.85847839  0.86566458  0.90328556    -0.98920
O4638       O  0.92029038  0.90255950  0.93682065    -0.80980
O4639       O  0.88983147  0.85126582  0.85614344    -0.84340
O4640       O  0.87392525  0.81814385  0.89358512    -2.19050
O4641       O  0.91690932  0.76246935  0.86237826    -0.67730
O4642       O  0.90276212  0.76289652  0.90564205    -0.52290
C4643       C  0.90830530  0.75221758  0.88463812     0.71040
O4644       O  0.99163890  0.88723602  0.86736350    -0.60630
O4645       O  0.97250769  0.90494355  0.84463762    -0.52610
C4646       C  0.99182871  0.90675930  0.85829200     0.72850
O4647       O  0.97173351  0.84041563  0.93606291    -0.72030
O4648       O  0.93247438  0.81112349  0.95105285    -0.50710
C4649       C  0.95771605  0.82555890  0.95357515     0.74230
O4650       O  0.95952178  0.82553845  0.80706884    -0.67360
O4651       O  0.95415172  0.85987501  0.80046862    -0.54560
C4652       C  0.96416690  0.84538760  0.79459815     0.72610
Zr4653     Zr  0.93158779  0.80332488  0.84352880     2.77540
O4654       O  0.96908258  0.79701416  0.84529746    -0.98110
O4655       O  0.91055329  0.77033086  0.80424223    -0.78930
Zr4656     Zr  0.96395492  0.86229466  0.90181014     2.70070
O4657       O  0.00953439  0.87669764  0.91304881    -0.80180
O4658       O  0.97592244  0.90047995  0.93457994    -0.99260
Zr4659     Zr  0.93082538  0.86573905  0.83727221     2.21500
Zr4660     Zr  0.89979336  0.80237284  0.91328495     2.11130
O4661       O  0.94010881  0.81616349  0.89163631    -2.47950
O4662       O  0.95651416  0.84899692  0.85420203    -0.79970
O4663       O  0.89185738  0.78977709  0.86459599    -0.72160
O4664       O  0.93958359  0.88003238  0.88519937    -2.33120
O4665       O  0.90671610  0.81986741  0.82444242    -2.29330
O4666       O  0.92420138  0.84847896  0.92348926    -0.73920
H4667       H  0.85736907  0.81139515  0.90184677     0.78070
H4668       H  0.94936069  0.89884964  0.88892925     0.79160
H4669       H  0.94917511  0.80789898  0.89836108     0.81390
H4670       H  0.90421126  0.81585042  0.80474028     0.78990
H4671       H  0.90872692  0.91012219  0.93720537     0.42030
H4672       H  0.96094211  0.89532571  0.94620013     0.41000
H4673       H  0.51323338  0.86493098  0.90070595     0.40680
H4674       H  0.96984051  0.79209816  0.86386690     0.38610
H4675       H  0.91533699  0.78020130  0.78805045     0.41740
H4676       H  0.86242136  0.77560307  0.79450223     0.36530
H4677       H  0.82993210  0.82261082  0.85534342     0.42640
H4678       H  0.84461443  0.84794084  0.90656196     0.39060
H4679       H  0.96373836  0.78084388  0.83285341     0.43980
H4680       H  0.83526943  0.77367478  0.79752526     0.42700
H4681       H  0.86013455  0.87693285  0.92025107     0.42840
H4682       H  0.99004068  0.90193794  0.94680876     0.43190
O4683       O  0.92353131  0.65510039  0.90576390    -0.75680
O4684       O  0.91015503  0.64443397  0.86049298    -0.54580
C4685       C  0.91638551  0.65965775  0.88324825     0.78050
O4686       O  0.98992621  0.58377287  0.89515936    -0.60280
O4687       O  0.96794517  0.55918907  0.92926887    -0.53310
C4688       C  0.98779457  0.57000240  0.91469224     0.70070
O4689       O  0.97167235  0.61876058  0.82946933    -0.74840
O4690       O  0.93660130  0.62130996  0.81445792    -0.55400
C4691       C  0.95970786  0.62424989  0.81176425     0.76070
O4692       O  0.95634984  0.62598821  0.96532440    -0.59980
O4693       O  0.95175151  0.58606627  0.96899961    -0.53100
C4694       C  0.96170707  0.61066794  0.97712850     0.72660
Zr4695     Zr  0.93194942  0.62375790  0.92446151     2.54710
O4696       O  0.97150645  0.66628843  0.93202459    -0.80550
O4697       O  0.91030092  0.63456928  0.96101389    -0.93960
Zr4698     Zr  0.96424699  0.59767202  0.87047028     2.64680
O4699       O  0.00454345  0.63914168  0.88140887    -0.98920
O4700       O  0.98515594  0.57785690  0.84324651    -0.80980
O4701       O  0.94337145  0.62268017  0.87813418    -0.84340
O4702       O  0.95468855  0.60087513  0.91624009    -2.19050
O4703       O  0.85562074  0.52726242  0.94340554    -0.67730
O4704       O  0.89339614  0.52892553  0.95666536    -0.52290
C4705       C  0.86855384  0.51941984  0.95734613     0.71040
O4706       O  0.86484459  0.53425272  0.82137993    -0.60630
O4707       O  0.88548377  0.57299085  0.80497516    -0.52610
C4708       C  0.87120544  0.54784807  0.80123138     0.72850
O4709       O  0.90246888  0.50306620  0.87243298    -0.72030
O4710       O  0.92253675  0.51563776  0.91543822    -0.50710
C4711       C  0.91240264  0.49960943  0.89357497     0.74230
O4712       O  0.83857409  0.56989265  0.88070350    -0.67360
O4713       O  0.86028846  0.59496621  0.84647474    -0.54560
C4714       C  0.84006017  0.58269801  0.86032002     0.72610
Zr4715     Zr  0.86481968  0.55897878  0.90929719     2.77540
O4716       O  0.82083853  0.52195243  0.89940544    -0.98110
O4717       O  0.85098169  0.57955067  0.94536930    -0.78930
Zr4718     Zr  0.89595031  0.53430491  0.85306604     2.70070
O4719       O  0.86083334  0.98982446  0.83955916    -0.80180
O4720       O  0.91635376  0.52625909  0.81334334    -0.99260
Zr4721     Zr  0.90379668  0.60054350  0.84946979     2.21500
Zr4722     Zr  0.92635391  0.55779093  0.92743525     2.11130
O4723       O  0.88625149  0.53510811  0.89959951    -2.47950
O4724       O  0.87445438  0.55784449  0.86230938    -0.79970
O4725       O  0.90408947  0.58136754  0.93771911    -0.72160
O4726       O  0.92544352  0.57614870  0.84148633    -2.33120
O4727       O  0.89270072  0.60162052  0.89669763    -2.29330
O4728       O  0.93546202  0.55494565  0.88051301    -0.73920
H4729       H  0.97130907  0.60929948  0.92651156     0.78070
H4730       H  0.92887345  0.57467550  0.82250570     0.79160
H4731       H  0.87560683  0.51725635  0.90349251     0.81390
H4732       H  0.88343720  0.61107771  0.89939206     0.78990
H4733       H  0.97191327  0.55901885  0.84029493     0.42030
H4734       H  0.92138684  0.51365009  0.81872917     0.41000
H4735       H  0.84670289  0.48765153  0.85157579     0.40680
H4736       H  0.82302640  0.50644225  0.89694466     0.38610
H4737       H  0.85760257  0.57687709  0.96264079     0.41740
H4738       H  0.89604660  0.63547385  0.95150705     0.36530
H4739       H  0.98517408  0.66340808  0.92383163     0.42640
H4740       H  0.00985468  0.63891404  0.90050931     0.39060
H4741       H  0.81217017  0.52050510  0.91684127     0.43980
H4742       H  0.92296004  0.65291871  0.96804872     0.42700
H4743       H  0.51748250  0.63733525  0.87022162     0.42840
H4744       H  0.90181549  0.51601591  0.79925656     0.43190
O4745       O  0.50551994  0.90807681  0.63004573    -0.75680
O4746       O  0.52778412  0.93233047  0.67011510    -0.54580
C4747       C  0.50777519  0.92152768  0.65292454     0.78050
O4748       O  0.57640147  0.84044930  0.62727669    -0.60280
O4749       O  0.59104992  0.85196235  0.58491825    -0.53310
C4750       C  0.58542937  0.83712083  0.60460037     0.70070
O4751       O  0.53814467  0.86653238  0.69138696    -0.74840
O4752       O  0.54907766  0.90806159  0.70733916    -0.55400
C4753       C  0.53664417  0.88334712  0.70868488     0.76070
O4754       O  0.52218308  0.86634399  0.56297144    -0.59980
O4755       O  0.55933754  0.87168618  0.54411748    -0.53100
C4756       C  0.53443922  0.86326053  0.54302555     0.72660
Zr4757     Zr  0.53259884  0.89600412  0.60344850     2.54710
O4758       O  0.98903218  0.85851755  0.60453031    -0.80550
O4759       O  0.51868041  0.91559018  0.57058717    -0.93960
Zr4760     Zr  0.56308520  0.86834411  0.65136652     2.64680
O4761       O  0.52280771  0.82634338  0.64322207    -0.98920
O4762       O  0.58028041  0.85278871  0.68565614    -0.80980
O4763       O  0.54063510  0.89142634  0.64910818    -0.84340
O4764       O  0.55395843  0.87146289  0.60506973    -2.19050
O4765       O  0.61591547  0.96312522  0.56127368    -0.67730
O4766       O  0.61442313  0.92495699  0.54575757    -0.52290
C4767       C  0.62015451  0.94890634  0.54330354     0.71040
O4768       O  0.64025580  0.96388831  0.69407734    -0.60630
O4769       O  0.60254648  0.96181099  0.70712766    -0.52610
C4770       C  0.62727672  0.97096374  0.71024521     0.72850
O4771       O  0.65490258  0.91676510  0.62493866    -0.72030
O4772       O  0.63621570  0.89793094  0.58182142    -0.50710
C4773       C  0.65429337  0.90542575  0.60100257     0.74230
O4774       O  0.59406644  0.99313087  0.63627784    -0.67360
O4775       O  0.57410142  0.97641013  0.67496908    -0.54560
C4776       C  0.58444999  0.99465067  0.65938730     0.72610
Zr4777     Zr  0.59996331  0.96172263  0.60590132     2.77540
O4778       O  0.64306108  0.00070739  0.61051769    -0.98110
O4779       O  0.58146692  0.98099404  0.57795948    -0.78930
Zr4780     Zr  0.63105488  0.93311117  0.65265242     2.70070
O4781       O  0.67512863  0.96935426  0.65016268    -0.80180
O4782       O  0.64457073  0.91448525  0.68699512    -0.99260
Zr4783     Zr  0.56961714  0.93407531  0.67073326     2.21500
Zr4784     Zr  0.59374636  0.89498649  0.58251893     2.11130
O4785       O  0.62198360  0.93766026  0.60673087    -2.47950
O4786       O  0.61018754  0.95792383  0.65093754    -0.79970
O4787       O  0.57202880  0.91963478  0.58169166    -0.72160
O4788       O  0.59162093  0.91022542  0.67478614    -2.33120
O4789       O  0.55982488  0.93854090  0.62530733    -2.29330
O4790       O  0.60245841  0.89139142  0.62934533    -0.73920
H4791       H  0.54354401  0.85393044  0.59599158     0.78070
H4792       H  0.59501576  0.90922425  0.69379040     0.79160
H4793       H  0.63817736  0.94644083  0.59785878     0.81390
H4794       H  0.55105618  0.94845433  0.62478843     0.78990
H4795       H  0.58212233  0.86366065  0.70300465     0.42030
H4796       H  0.63505588  0.89546376  0.68107122     0.41000
H4797       H  0.67278804  0.98430780  0.64708643     0.40680
H4798       H  0.65471191  0.99507591  0.60186360     0.38610
H4799       H  0.56880024  0.96627533  0.56475460     0.41740
H4800       H  0.52183224  0.93228886  0.58050259     0.36530
H4801       H  0.99132771  0.84714338  0.61641753     0.42640
H4802       H  0.52430582  0.81814188  0.62534490     0.39060
H4803       H  0.64193946  0.51218517  0.59784632     0.43980
H4804       H  0.49946035  0.90444248  0.56873496     0.42700
H4805       H  0.52419582  0.81574681  0.65685062     0.42840
H4806       H  0.66302388  0.92027360  0.68373062     0.43190
O4807       O  0.65080521  0.61983493  0.83014316    -0.75680
O4808       O  0.68839797  0.62113853  0.81756704    -0.54580
C4809       C  0.66982283  0.62638095  0.81452251     0.78050
O4810       O  0.66747271  0.62541668  0.96315205    -0.60280
O4811       O  0.63344507  0.58499945  0.96790967    -0.53310
C4812       C  0.64714810  0.60991245  0.97509146     0.70070
O4813       O  0.72965234  0.65516215  0.90439894    -0.74840
O4814       O  0.73444603  0.64085873  0.86147284    -0.55400
C4815       C  0.74219472  0.65796347  0.88258653     0.76070
O4816       O  0.59239417  0.57861544  0.89021763    -0.59980
O4817       O  0.59164961  0.55816928  0.92773966    -0.53100
C4818       C  0.58171805  0.56701116  0.91130674     0.72660
Zr4819     Zr  0.63276948  0.59328165  0.86716776     2.54710
O4820       O  0.62857126  0.63178181  0.87792202    -0.80550
O4821       O  0.59778927  0.57387139  0.83114708    -0.93960
Zr4822     Zr  0.69084883  0.62311781  0.92384995     2.64680
O4823       O  0.69387711  0.66572922  0.92879931    -0.98920
O4824       O  0.72338622  0.63601539  0.96146962    -0.80980
O4825       O  0.67842260  0.61952611  0.87680554    -0.84340
O4826       O  0.64529863  0.59844277  0.91384471    -2.19050
O4827       O  0.60715771  0.49689485  0.88020449    -0.67730
O4828       O  0.59199420  0.51587847  0.91104837    -0.52290
C4829       C  0.58868992  0.49729204  0.89294855     0.71040
O4830       O  0.73357649  0.57009261  0.88575126    -0.60630
O4831       O  0.73593064  0.59351445  0.85017674    -0.52610
C4832       C  0.74461649  0.58241116  0.86505153     0.72850
O4833       O  0.67424636  0.52973570  0.94865927    -0.72030
O4834       O  0.63585567  0.52818352  0.95838780    -0.50710
C4835       C  0.65307413  0.52121192  0.96165285     0.74230
O4836       O  0.67338459  0.53254454  0.82695470    -0.67360
O4837       O  0.68932247  0.56995882  0.80817441    -0.54560
C4838       C  0.67945831  0.54503303  0.80595623     0.72610
Zr4839     Zr  0.63917777  0.53018159  0.85514451     2.77540
O4840       O  0.63053630  0.98768533  0.83369707    -0.98110
O4841       O  0.60749881  0.52145864  0.81793926    -0.78930
Zr4842     Zr  0.69581935  0.55946098  0.91308504     2.70070
O4843       O  0.70352332  0.52279345  0.90765507    -0.80180
O4844       O  0.73029575  0.58236733  0.94941168    -0.99260
Zr4845     Zr  0.69723124  0.59750696  0.85151129     2.21500
Zr4846     Zr  0.63147245  0.55617132  0.92738596     2.11130
O4847       O  0.65051334  0.53377022  0.90253338    -2.47950
O4848       O  0.68444894  0.55543512  0.86559039    -0.79970
O4849       O  0.61944366  0.55127208  0.87972899    -0.72160
O4850       O  0.70970619  0.60136971  0.89919968    -2.33120
O4851       O  0.65130965  0.57165769  0.84109440    -2.29330
O4852       O  0.67730503  0.58149209  0.93875112    -0.73920
H4853       H  0.63655077  0.60664610  0.92313642     0.78070
H4854       H  0.72840891  0.61147869  0.90239387     0.79160
H4855       H  0.64486061  0.51668260  0.90804063     0.81390
H4856       H  0.64702588  0.57023161  0.82174611     0.78990
H4857       H  0.73901312  0.63778410  0.95254543     0.42030
H4858       H  0.72174791  0.58597896  0.96509545     0.41000
H4859       H  0.69153053  0.51116909  0.89192656     0.40680
H4860       H  0.63030327  0.97783832  0.84899389     0.38610
H4861       H  0.59234937  0.52048282  0.82726514     0.41740
H4862       H  0.60597371  0.57184796  0.81429989     0.36530
H4863       H  0.64664968  0.64622232  0.88263176     0.42640
H4864       H  0.67565714  0.66190677  0.92975174     0.39060
H4865       H  0.61232792  0.97862009  0.82589433     0.43980
H4866       H  0.59402793  0.58796189  0.82823769     0.42700
H4867       H  0.70196302  0.67363499  0.94749713     0.42840
H4868       H  0.73391966  0.56884637  0.95499820     0.43190
O4869       O  0.53863428  0.67917719  0.71124546    -0.75680
O4870       O  0.54735696  0.64896274  0.72591614    -0.54580
C4871       C  0.53469243  0.66144020  0.72704801     0.78050
O4872       O  0.52710933  0.65525044  0.58815910    -0.60280
O4873       O  0.56515079  0.67554618  0.56750906    -0.53310
C4874       C  0.54002855  0.66186436  0.56689670     0.70070
O4875       O  0.50752275  0.61369939  0.66171283    -0.74840
O4876       O  0.52811175  0.59960654  0.68784369    -0.55400
C4877       C  0.50789194  0.59568226  0.67375768     0.76070
O4878       O  0.58004963  0.73714588  0.64730734    -0.59980
O4879       O  0.59213346  0.73058304  0.60443437    -0.53100
C4880       C  0.58692098  0.74377368  0.62292898     0.72660
Zr4881     Zr  0.56988710  0.70114646  0.67598167     2.54710
O4882       O  0.53657127  0.71361569  0.67745910    -0.80550
O4883       O  0.59426095  0.73594769  0.71289384    -0.93960
Zr4884     Zr  0.53455175  0.63584097  0.62521286     2.64680
O4885       O  0.98808248  0.61908671  0.61609758    -0.98920
O4886       O  0.52346379  0.59679728  0.59398810    -0.80980
O4887       O  0.54525173  0.65488018  0.67110774    -0.84340
O4888       O  0.55848248  0.68247246  0.62951263    -2.19050
O4889       O  0.66175904  0.73334376  0.64657214    -0.67730
O4890       O  0.64150279  0.73133534  0.60601439    -0.52290
C4891       C  0.66128147  0.74228020  0.62364738     0.71040
O4892       O  0.59159158  0.59818620  0.64790773    -0.60630
O4893       O  0.57167020  0.59818838  0.68744790    -0.52610
C4894       C  0.58108807  0.58829501  0.66958257     0.72850
O4895       O  0.61443098  0.64340970  0.57933514    -0.72030
O4896       O  0.61365127  0.67881119  0.56637401    -0.50710
C4897       C  0.61714367  0.65903027  0.56187377     0.74230
O4898       O  0.64281112  0.67722251  0.71302049    -0.67360
O4899       O  0.60376636  0.64546755  0.72605434    -0.54560
C4900       C  0.62895903  0.65886629  0.72819977     0.72610
Zr4901     Zr  0.63495565  0.69836823  0.67525611     2.77540
O4902       O  0.67868504  0.70438708  0.67552039    -0.98110
O4903       O  0.64934553  0.73490427  0.71092327    -0.78930
Zr4904     Zr  0.60014317  0.63427331  0.62404994     2.70070
O4905       O  0.64232741  0.63674961  0.62626282    -0.80180
O4906       O  0.58010439  0.59329692  0.59391478    -0.99260
Zr4907     Zr  0.57086499  0.63916315  0.69104264     2.21500
Zr4908     Zr  0.59789380  0.69344971  0.60677536     2.11130
O4909       O  0.62516424  0.68022195  0.62825788    -2.47950
O4910       O  0.61096965  0.65219111  0.67023528    -0.79970
O4911       O  0.60897067  0.71267247  0.65378467    -0.72160
O4912       O  0.56016264  0.62060012  0.64443815    -2.33120
O4913       O  0.59551910  0.68616149  0.69755585    -2.29330
O4914       O  0.57331022  0.64712687  0.60261754    -0.73920
H4915       H  0.54905062  0.68992640  0.62172243     0.78070
H4916       H  0.55026655  0.60177690  0.64297635     0.79160
H4917       H  0.64101984  0.68561211  0.61886519     0.81390
H4918       H  0.59907122  0.69240433  0.71686916     0.78990
H4919       H  0.52218926  0.58337093  0.60536524     0.42030
H4920       H  0.57012917  0.59568471  0.57931933     0.41000
H4921       H  0.65056643  0.64650578  0.64438717     0.40680
H4922       H  0.68219310  0.70285695  0.65594258     0.38610
H4923       H  0.64450523  0.74680675  0.70316209     0.41740
H4924       H  0.58341571  0.73027854  0.72884038     0.36530
H4925       H  0.52220402  0.70002632  0.66470732     0.42640
H4926       H  0.98606022  0.63470224  0.61741345     0.39060
H4927       H  0.69039234  0.72304923  0.68224409     0.43980
H4928       H  0.59281748  0.75090145  0.70770340     0.42700
H4929       H  0.98431996  0.61215094  0.59644163     0.42840
H4930       H  0.59469755  0.59293047  0.58464521     0.43190
O4931       O  0.82425318  0.96538844  0.68917679    -0.75680
O4932       O  0.86175078  0.96591619  0.70154951    -0.54580
C4933       C  0.84493539  0.97348904  0.70502100     0.78050
O4934       O  0.77823444  0.83669039  0.61274168    -0.60280
O4935       O  0.76067176  0.85109557  0.58293616    -0.53310
C4936       C  0.75857098  0.83395209  0.59868863     0.70070
O4937       O  0.82742352  0.87022681  0.69044680    -0.74840
O4938       O  0.86111153  0.91118084  0.70454067    -0.55400
C4939       C  0.84646867  0.88675514  0.70735741     0.76070
O4940       O  0.76393173  0.92147327  0.61841498    -0.59980
O4941       O  0.76058812  0.89789918  0.57734301    -0.53100
C4942       C  0.75175405  0.90817528  0.59550619     0.72660
Zr4943     Zr  0.80402353  0.93642864  0.64627051     2.54710
O4944       O  0.76978351  0.92075371  0.67847030    -0.80550
O4945       O  0.80176048  0.97551730  0.64056054    -0.93960
Zr4946     Zr  0.80462647  0.87101155  0.64924902     2.64680
O4947       O  0.76823909  0.86560252  0.67625709    -0.98920
O4948       O  0.79161271  0.82750434  0.66130108    -0.80980
O4949       O  0.82009666  0.91403950  0.67062239    -0.84340
O4950       O  0.78777670  0.89296211  0.62571748    -2.19050
O4951       O  0.84382805  0.96199946  0.55546985    -0.67730
O4952       O  0.80853082  0.92219601  0.54027362    -0.52290
C4953       C  0.82573827  0.94640087  0.53746664     0.71040
O4954       O  0.90002615  0.90541775  0.63062957    -0.60630
O4955       O  0.90447930  0.93285597  0.66880579    -0.52610
C4956       C  0.91213072  0.91994834  0.65295525     0.72850
O4957       O  0.83092486  0.85610350  0.57065819    -0.72030
O4958       O  0.80979621  0.86856835  0.54307348    -0.50710
C4959       C  0.82253934  0.85658858  0.54679345     0.74230
O4960       O  0.90214077  0.99173943  0.62501601    -0.67360
O4961       O  0.90561727  0.97848472  0.66600567    -0.54560
C4962       C  0.91441688  0.99481945  0.64799018     0.72610
Zr4963     Zr  0.86236079  0.96023934  0.59808518     2.77540
O4964       O  0.89624226  0.97201667  0.56550260    -0.98110
O4965       O  0.86427462  0.00224855  0.60039039    -0.78930
Zr4966     Zr  0.86257532  0.89474434  0.60021371     2.70070
O4967       O  0.89299758  0.91504157  0.56520497    -0.80180
O4968       O  0.87800260  0.86368372  0.59317189    -0.99260
Zr4969     Zr  0.86600123  0.93653875  0.66643490     2.21500
Zr4970     Zr  0.79978256  0.89416202  0.57870351     2.11130
O4971       O  0.84631926  0.91713019  0.57622624    -2.47950
O4972       O  0.87924462  0.93805649  0.62066289    -0.79970
O4973       O  0.81640150  0.93794335  0.60018046    -0.72160
O4974       O  0.85046293  0.89269686  0.64615226    -2.33120
O4975       O  0.84974566  0.95961287  0.64347025    -2.29330
O4976       O  0.81680569  0.87203580  0.60317694    -0.73920
H4977       H  0.76906291  0.88329579  0.62632253     0.78070
H4978       H  0.85808674  0.88411223  0.65518191     0.79160
H4979       H  0.85073747  0.91744446  0.55731225     0.81390
H4980       H  0.85720236  0.97746356  0.65167849     0.78990
H4981       H  0.80417742  0.82317562  0.65259925     0.42030
H4982       H  0.86385298  0.84719328  0.59898282     0.41000
H4983       H  0.90931735  0.92844338  0.57563645     0.40680
H4984       H  0.88829759  0.95844060  0.54959771     0.38610
H4985       H  0.84582311  0.99783011  0.60021282     0.41740
H4986       H  0.81971767  0.99018783  0.64531575     0.36530
H4987       H  0.76574275  0.93499982  0.68191878     0.42640
H4988       H  0.75288239  0.85832239  0.66311585     0.39060
H4989       H  0.89811026  0.98796057  0.55860557     0.43980
H4990       H  0.79156153  0.97690362  0.65583380     0.42700
H4991       H  0.76470010  0.85116369  0.68725896     0.42840
H4992       H  0.87782821  0.86015201  0.57302346     0.43190
C4993       C  0.94004910  0.51928599  0.65418582    -0.06510
C4994       C  0.95108137  0.52719586  0.68133106    -0.17640
C4995       C  0.97346478  0.55166571  0.68855493     0.10690
C4996       C  0.98465255  0.56919703  0.66864629    -0.06430
C4997       C  0.97420931  0.56086455  0.64153262    -0.17670
C4998       C  0.95314394  0.53599911  0.63384911     0.10720
S4999       S  0.98600127  0.55989955  0.72355232    -0.32630
S5000       S  0.94560761  0.52669925  0.59746663    -0.32640
H5001       H  0.94240835  0.00169838  0.59871260     0.28730
H5002       H  0.48989526  0.58519958  0.72408579     0.28720
H5003       H  0.94191208  0.51461244  0.69723831     0.19320
H5004       H  0.98321904  0.57355890  0.62574590     0.19320
C5005       C  0.68538902  0.76672790  0.61715162    -0.06510
C5006       C  0.68925226  0.77328086  0.58989595    -0.17640
C5007       C  0.71248368  0.79503466  0.58275343     0.10690
C5008       C  0.73278864  0.81064002  0.60311461    -0.06430
C5009       C  0.72860486  0.80423342  0.63016533    -0.17670
C5010       C  0.70529530  0.78353637  0.63755009     0.10720
S5011       S  0.71535582  0.80099144  0.54730056    -0.32630
S5012       S  0.70205348  0.78125227  0.67384217    -0.32640
H5013       H  0.67696721  0.77823090  0.67288654     0.28730
H5014       H  0.74220601  0.81002130  0.54731174     0.28720
H5015       H  0.67433321  0.76106877  0.57382491     0.19320
H5016       H  0.74352259  0.81613396  0.64626154     0.19320
C5017       C  0.64268011  0.65145479  0.74869313    -0.06510
C5018       C  0.66469573  0.67048823  0.76548551    -0.17640
C5019       C  0.67618559  0.66338637  0.78612108     0.10690
C5020       C  0.66631487  0.63662662  0.78928791    -0.06430
C5021       C  0.64566298  0.61797786  0.77148325    -0.17670
C5022       C  0.63369830  0.62491518  0.75209263     0.10720
S5023       S  0.70227552  0.68922792  0.80848688    -0.32630
S5024       S  0.60708601  0.59827901  0.73207778    -0.32640
H5025       H  0.61880437  0.60923093  0.70829171     0.28730
H5026       H  0.71057868  0.67362922  0.81997087     0.28720
H5027       H  0.67222200  0.69098068  0.76344568     0.19320
H5028       H  0.63751798  0.59741540  0.77391508     0.19320
C5029       C  0.63845563  0.62279739  0.99686588    -0.06510
C5030       C  0.65487746  0.64988971  0.50525639    -0.17640
C5031       C  0.64744193  0.66375292  0.52427744     0.10690
C5032       C  0.62267201  0.65073139  0.53476599    -0.06430
C5033       C  0.60574025  0.62428674  0.52523775    -0.17670
C5034       C  0.61356301  0.61000238  0.50765045     0.10720
S5035       S  0.67112796  0.69720906  0.53613968    -0.32630
S5036       S  0.59177320  0.57518384  0.00287244    -0.32640
H5037       H  0.58764519  0.57473718  0.97475914     0.28730
H5038       H  0.65287232  0.70543348  0.54052515     0.28720
H5039       H  0.67408079  0.66044085  0.99752305     0.19320
H5040       H  0.58696162  0.61385711  0.53398215     0.19320
C5041       C  0.63325436  0.96336954  0.51932750    -0.06510
C5042       C  0.65352152  0.98952428  0.52588128    -0.17640
C5043       C  0.66072302  0.50844069  0.50749577     0.10690
C5044       C  0.64785912  0.50143252  0.98116581    -0.06430
C5045       C  0.62879226  0.97498430  0.97374302    -0.17670
C5046       C  0.62156207  0.95598244  0.99234599     0.10720
S5047       S  0.68405770  0.54178845  0.52040506    -0.32630
S5048       S  0.59581768  0.92323831  0.98133861    -0.32640
H5049       H  0.60715825  0.91124461  0.49505364     0.28730
H5050       H  0.69503211  0.54985580  0.49545665     0.28720
H5051       H  0.66247200  0.49587671  0.54657639     0.19320
H5052       H  0.61891534  0.96920338  0.95350461     0.19320
C5053       C  0.64198229  0.99127359  0.73386131    -0.06510
C5054       C  0.66243212  0.99091325  0.74818214    -0.17640
C5055       C  0.67646479  0.00933214  0.77087465     0.10690
C5056       C  0.67089116  0.52942700  0.77883310    -0.06430
C5057       C  0.65148483  0.53059721  0.76377729    -0.17670
C5058       C  0.63654254  0.51148409  0.74220314     0.10720
S5059       S  0.70080005  0.00586488  0.78924130    -0.32630
S5060       S  0.61037861  0.51388236  0.72695895    -0.32640
H5061       H  0.59111667  0.49146862  0.73774332     0.28730
H5062       H  0.71570134  0.03219085  0.80033017     0.28720
H5063       H  0.66695748  0.97566129  0.74224669     0.19320
H5064       H  0.64644979  0.54539337  0.77029768     0.19320
C5065       C  0.58507090  0.51910330  0.66828218    -0.06510
C5066       C  0.56213447  0.51834934  0.67675214    -0.17640
C5067       C  0.56010886  0.54089703  0.67870608     0.10690
C5068       C  0.58199121  0.56468014  0.67367738    -0.06430
C5069       C  0.60573850  0.56568260  0.66861900    -0.17670
C5070       C  0.60755129  0.54326174  0.66596452     0.10720
S5071       S  0.52873944  0.53754184  0.68479394    -0.32630
S5072       S  0.63898481  0.54681145  0.65923727    -0.32640
H5073       H  0.63502750  0.52469827  0.67138945     0.28730
H5074       H  0.53004710  0.55408392  0.66540491     0.28720
H5075       H  0.54514108  0.99987392  0.67978737     0.19320
H5076       H  0.62289714  0.58410951  0.66559542     0.19320
C5077       C  0.58961402  0.76870342  0.61571910    -0.06510
C5078       C  0.57690728  0.76902188  0.59147784    -0.17640
C5079       C  0.57676844  0.79172128  0.58550715     0.10690
C5080       C  0.59043404  0.81495059  0.60364317    -0.06430
C5081       C  0.60471667  0.81486607  0.62665078    -0.17670
C5082       C  0.60464988  0.79233854  0.63273617     0.10720
S5083       S  0.55745723  0.78914142  0.55563232    -0.32630
S5084       S  0.62400875  0.79506016  0.66273615    -0.32640
H5085       H  0.63081341  0.77666243  0.65186023     0.28730
H5086       H  0.54952620  0.80657105  0.56662016     0.28720
H5087       H  0.56577554  0.75109928  0.57790577     0.19320
H5088       H  0.61493480  0.83233774  0.64103477     0.19320
C5089       C  0.67632508  0.90085720  0.59600220    -0.06510
C5090       C  0.69050269  0.90882990  0.57252939    -0.17640
C5091       C  0.71472665  0.91002985  0.57041481     0.10690
C5092       C  0.72469546  0.90281527  0.59216101    -0.06430
C5093       C  0.70916377  0.89240861  0.61413441    -0.17670
C5094       C  0.68518502  0.89121926  0.61625985     0.10720
S5095       S  0.73221464  0.92223069  0.54037861    -0.32630
S5096       S  0.66631871  0.87770159  0.64528739    -0.32640
H5097       H  0.68231545  0.86923686  0.65650709     0.28730
H5098       H  0.75725869  0.93196032  0.55246459     0.28720
H5099       H  0.68355399  0.91579078  0.55665087     0.19320
H5100       H  0.71647766  0.88615329  0.63039339     0.19320
C5101       C  0.93759569  0.92319088  0.65953282    -0.06510
C5102       C  0.95897157  0.94380363  0.64896520    -0.17640
C5103       C  0.98288516  0.94476116  0.64820261     0.10690
C5104       C  0.98561336  0.92497979  0.65901509    -0.06430
C5105       C  0.96442434  0.90491522  0.67061996    -0.17670
C5106       C  0.94042065  0.90388772  0.67109800     0.10720
S5107       S  0.50768549  0.96970244  0.62990127    -0.32630
S5108       S  0.91368133  0.87651621  0.68467860    -0.32640
H5109       H  0.89962821  0.88923886  0.69176355     0.28730
H5110       H  0.52888522  0.96885885  0.64120432     0.28720
H5111       H  0.95647082  0.95821871  0.63940641     0.19320
H5112       H  0.96604683  0.88904821  0.67776000     0.19320
C5113       C  0.98254267  0.62343615  0.99991490    -0.06510
C5114       C  0.99753268  0.65114006  0.50366044    -0.17640
C5115       C  0.51773066  0.66472190  0.52419886     0.10690
C5116       C  0.52397431  0.65047531  0.54099625    -0.06430
C5117       C  0.50983243  0.62304062  0.53677109    -0.17670
C5118       C  0.98926138  0.60940717  0.51684650     0.10720
S5119       S  0.53394692  0.69997802  0.52829264    -0.32630
S5120       S  0.97157477  0.57431627  0.01571377    -0.32640
H5121       H  0.98029268  0.57060492  0.99002630     0.28730
H5122       H  0.54257256  0.70408824  0.55596984     0.28720
H5123       H  0.99332062  0.66259620  0.99079255     0.19320
H5124       H  0.51417726  0.61198741  0.55007449     0.19320
C5125       C  0.97422317  0.63218430  0.78626564    -0.06510
C5126       C  0.97940676  0.65484673  0.77437764    -0.17640
C5127       C  0.99808408  0.66469498  0.75419139     0.10690
C5128       C  0.51344752  0.65289385  0.74719308    -0.06430
C5129       C  0.50754169  0.63018544  0.75915958    -0.17670
C5130       C  0.98753823  0.61907693  0.77667132     0.10720
S5131       S  0.00162943  0.69243993  0.73877625    -0.32630
S5132       S  0.98016516  0.58758980  0.78596427    -0.32640
H5133       H  0.95336597  0.57793634  0.78671983     0.28730
H5134       H  0.49603397  0.67931368  0.71205937     0.28720
H5135       H  0.96934207  0.66515878  0.78110737     0.19320
H5136       H  0.51820059  0.62008768  0.75439470     0.19320
C5137       C  0.85384774  0.49749111  0.97484837    -0.06510
C5138       C  0.83356408  0.49659034  0.49029315    -0.17640
C5139       C  0.82140398  0.97806670  0.50922059     0.10690
C5140       C  0.82792868  0.95829611  0.51147201    -0.06430
C5141       C  0.84639717  0.95780582  0.49410945    -0.17670
C5142       C  0.85981431  0.97730791  0.97674442     0.10720
S5143       S  0.79891907  0.48198231  0.53093995    -0.32630
S5144       S  0.88522899  0.97579676  0.95847389    -0.32160
H5145       H  0.90504183  0.99646584  0.97608110     0.28730
H5146       H  0.80004880  0.96839297  0.55228601     0.28720
H5147       H  0.82842274  0.51160103  0.48911182     0.19320
H5148       H  0.85254031  0.94363178  0.49624452     0.19320
C5149       C  0.85017565  0.99364745  0.72839319    -0.06510
C5150       C  0.87349028  0.51781997  0.73012000    -0.17640
C5151       C  0.87948278  0.53745771  0.75192165     0.10690
C5152       C  0.86237707  0.53266147  0.77340364    -0.06430
C5153       C  0.83854805  0.00874102  0.77092453    -0.17670
C5154       C  0.83225122  0.98937440  0.74872352     0.10720
S5155       S  0.91002739  0.56742343  0.75198047    -0.32630
S5156       S  0.80235191  0.95834489  0.74775835    -0.32640
H5157       H  0.79254029  0.96455130  0.77150594     0.28730
H5158       H  0.89901256  0.58337803  0.75763748     0.28720
H5159       H  0.88717429  0.52144978  0.71429091     0.19320
H5160       H  0.82539216  0.00465218  0.78732055     0.19320
C5161       C  0.50962937  0.56556648  0.91909932    -0.06510
C5162       C  0.51151789  0.54796724  0.89946852    -0.17640
C5163       C  0.53434212  0.54674500  0.89784844     0.10690
C5164       C  0.55587022  0.56346597  0.91629244    -0.06430
C5165       C  0.55370602  0.58035303  0.93667662    -0.17670
C5166       C  0.53083560  0.58168578  0.93829351     0.10720
S5167       S  0.53566156  0.52519642  0.87025948    -0.32630
S5168       S  0.53125882  0.60593675  0.96375674    -0.32640
H5169       H  0.00720424  0.60339352  0.95626636     0.28730
H5170       H  0.55399758  0.52107028  0.88376899     0.28720
H5171       H  0.49558784  0.53614529  0.88421130     0.19320
H5172       H  0.57056225  0.59405835  0.95006911     0.19320
C5173       C  0.81655056  0.58385200  0.85358399    -0.06510
C5174       C  0.81684845  0.60730667  0.86131319    -0.17640
C5175       C  0.79355921  0.60763170  0.86420843     0.10690
C5176       C  0.76949607  0.58411592  0.85851148    -0.06430
C5177       C  0.76929840  0.56108107  0.84879757    -0.17670
C5178       C  0.79257874  0.56076685  0.84608150     0.10720
S5179       S  0.79594143  0.63809765  0.87760336    -0.32630
S5180       S  0.79057897  0.53013238  0.83421292    -0.32640
H5181       H  0.81561754  0.54116464  0.82415115     0.28730
H5182       H  0.77444351  0.62713665  0.89387946     0.28720
H5183       H  0.83522298  0.62498733  0.86750197     0.19320
H5184       H  0.75087712  0.54305691  0.84415584     0.19320
C5185       C  0.97288475  0.82990428  0.97949533    -0.06510
C5186       C  0.98729181  0.81719157  0.98272282    -0.17640
C5187       C  0.50883472  0.82770630  0.50225794     0.10690
C5188       C  0.51746354  0.85250965  0.51717725    -0.06430
C5189       C  0.50361539  0.86539289  0.51249740    -0.17670
C5190       C  0.98093892  0.85380471  0.99559613     0.10720
S5191       S  0.52381110  0.80841989  0.50735315    -0.32630
S5192       S  0.96337566  0.87118147  0.99469273    -0.32640
H5193       H  0.93886802  0.84847899  0.98908637     0.28730
H5194       H  0.54821336  0.82930600  0.51756046     0.28720
H5195       H  0.98207769  0.79934686  0.96967005     0.19320
H5196       H  0.50948728  0.88418931  0.52391194     0.19320
C5197       C  0.98300564  0.85365442  0.77266090    -0.06510
C5198       C  0.99019904  0.87794716  0.76358748    -0.17640
C5199       C  0.00758737  0.88800066  0.74344104     0.10690
C5200       C  0.51872296  0.87366043  0.73113321    -0.06430
C5201       C  0.51170593  0.84924974  0.73994638    -0.17670
C5202       C  0.99432020  0.83926107  0.76073834     0.10720
S5203       S  0.01258589  0.91836510  0.73322353    -0.32630
S5204       S  0.98743580  0.80817484  0.77066172    -0.32640
H5205       H  0.99788471  0.81875397  0.79768625     0.28730
H5206       H  0.50354843  0.90636928  0.70648572     0.28720
H5207       H  0.98211857  0.88966907  0.77212059     0.19320
H5208       H  0.52003686  0.83796092  0.73082329     0.19320
C5209       C  0.91321734  0.97581232  0.88991372    -0.06510
C5210       C  0.93784012  0.97855934  0.88675563    -0.17640
C5211       C  0.94027202  0.95881130  0.87189365     0.10690
C5212       C  0.91771658  0.93629259  0.86003252    -0.06430
C5213       C  0.89327842  0.93415535  0.86223096    -0.17670
C5214       C  0.89065090  0.95302734  0.87818370     0.10720
S5215       S  0.97189570  0.96169168  0.86925595    -0.32630
S5216       S  0.85795854  0.94721636  0.88218701    -0.32640
H5217       H  0.86422047  0.96774363  0.90289202     0.28730
H5218       H  0.98493094  0.98300657  0.88965437     0.28720
H5219       H  0.95511974  0.99668535  0.89458773     0.19320
H5220       H  0.87584678  0.91618066  0.85418680     0.19320
C5221       C  0.91403573  0.68351993  0.88443587    -0.06510
C5222       C  0.89893965  0.68538293  0.86349703    -0.17640
C5223       C  0.89487161  0.70663074  0.86418261     0.10690
C5224       C  0.90629060  0.72678754  0.88612639    -0.06430
C5225       C  0.92052291  0.72473500  0.90749413    -0.17670
C5226       C  0.92480673  0.70361904  0.90698776     0.10720
S5227       S  0.87479707  0.70688332  0.83652957    -0.32630
S5228       S  0.94576592  0.70445856  0.93458444    -0.32640
H5229       H  0.94547890  0.72421585  0.95249427     0.28730
H5230       H  0.86621068  0.72209189  0.85180565     0.28720
H5231       H  0.88990119  0.67003624  0.84655625     0.19320
H5232       H  0.92979781  0.74071453  0.92378764     0.19320
C5233       C  0.56249291  0.97559716  0.88450229    -0.06510
C5234       C  0.55808950  0.96495566  0.85680472    -0.17640
C5235       C  0.53472857  0.94294939  0.84714192     0.10690
C5236       C  0.51484252  0.93206881  0.86518105    -0.06430
C5237       C  0.51813442  0.94398762  0.89207552    -0.17670
C5238       C  0.54193529  0.96545243  0.90216973     0.10720
S5239       S  0.53187143  0.92937398  0.81205045    -0.32630
S5240       S  0.54512407  0.97767217  0.93782914    -0.32640
H5241       H  0.56966787  0.48011127  0.94281453     0.28730
H5242       H  0.51677187  0.90308319  0.81685727     0.28720
H5243       H  0.57325495  0.97337474  0.84261896     0.19320
H5244       H  0.50241243  0.93579299  0.90564335     0.19320
C5245       C  0.81607581  0.72913861  0.88729923    -0.06510
C5246       C  0.80744900  0.71221092  0.86284179    -0.17640
C5247       C  0.78338748  0.68926262  0.86016483     0.10690
C5248       C  0.76770128  0.68235818  0.88298702    -0.06430
C5249       C  0.77717837  0.69902021  0.90789243    -0.17670
C5250       C  0.80082699  0.72243292  0.91011452     0.10720
S5251       S  0.77413363  0.67062466  0.82679881    -0.32630
S5252       S  0.80955450  0.74347832  0.94198597    -0.32640
H5253       H  0.81853370  0.76673659  0.92974080     0.28730
H5254       H  0.75052641  0.67065563  0.82434996     0.28720
H5255       H  0.81921715  0.71746877  0.84519956     0.19320
H5256       H  0.76586403  0.69426976  0.92584794     0.19320
C5257       C  0.86171823  0.83383283  0.98568191    -0.06510
C5258       C  0.83695262  0.81465756  0.99280017    -0.17640
C5259       C  0.82277267  0.82108270  0.51215283     0.10690
C5260       C  0.83278559  0.84748450  0.52329908    -0.06430
C5261       C  0.85729938  0.86617712  0.51615228    -0.17670
C5262       C  0.87224350  0.85961795  0.99908074     0.10720
S5263       S  0.79199131  0.79500067  0.52115284    -0.32630
S5264       S  0.90492520  0.88574502  0.99528508    -0.32640
H5265       H  0.91459145  0.86968199  0.98499547     0.28730
H5266       H  0.78240031  0.81084242  0.53263583     0.28720
H5267       H  0.82821753  0.79494148  0.98260998     0.19320
H5268       H  0.86546976  0.88626085  0.52492106     0.19320
C5269       C  0.85283791  0.87616717  0.73044805    -0.06510
C5270       C  0.85631073  0.85453809  0.72444369    -0.17640
C5271       C  0.86348614  0.84412829  0.74506812     0.10690
C5272       C  0.86657068  0.85507817  0.77254605    -0.06430
C5273       C  0.86227279  0.87613259  0.77871129    -0.17670
C5274       C  0.85566563  0.88688843  0.75797630     0.10720
S5275       S  0.87012048  0.81817908  0.73469773    -0.32630
S5276       S  0.85005003  0.91351982  0.76779329    -0.32640
H5277       H  0.87103064  0.93129147  0.75373667     0.28730
H5278       H  0.86493626  0.80707492  0.75953136     0.28720
H5279       H  0.85423593  0.84619980  0.70333376     0.19320
H5280       H  0.86489238  0.88478728  0.79977399     0.19320
loop_ 
_geom_bond_atom_site_label_1 
_geom_bond_atom_site_label_2 
_geom_bond_distance 
_geom_bond_site_symmetry_2 
_ccdc_geom_bond_type 
O1          Zr13   2.465       .  S
O1            C3   1.292       .  A
O2          Zr39   2.403       .  S
O2            C3   1.282       .  A
C3          C652   1.471       .  S
O4          Zr16   2.372       .  S
O4            C6   1.274       .  A
O5          Zr40   2.522       .  S
O5            C6   1.304       .  A
C6          C637   1.498       .  S
O7          Zr16   2.369       .  S
O7            C9   1.275       .  A
O8          Zr39   2.397       .  S
O8            C9   1.279       .  A
C9          C592   1.432       .  S
O10         Zr13   2.405       .  S
O10          C12   1.283       .  A
O11         Zr40   2.421       .  S
O11          C12   1.288       .  A
C12         C625   1.458       .  S
Zr13         O14   2.434       .  S
Zr13         O15   2.437       .  S
Zr13         O19   2.344       .  S
Zr13         O20   2.386       .  S
Zr13         O43   2.367       .  S
Zr13         O45   2.367       .  S
O14          H57   0.990       .  S
O15          H56   0.990       .  S
O15          H60   0.990       .  S
Zr16         O17   2.437       .  S
Zr16         O18   2.433       .  S
Zr16         O20   2.350       .  S
Zr16         O19   2.351       .  S
Zr16         O44   2.350       .  S
Zr16         O46   2.370       .  S
O17          H58   0.990       .  S
O17          H61   0.990       .  S
O18          H51   0.990       .  S
O19         Zr39   2.368       .  S
O20         Zr40   2.399       .  S
O20          H47   0.966       .  S
O21         Zr33   2.414       .  S
O21          C23   1.283       .  A
O22         Zr40   2.435       .  S
O22          C23   1.291       .  A
C23         C604   1.464       .  S
O24         Zr36   2.415       .  S
O24          C26   1.276       .  A
O25         Zr39   2.398       .  S
O25          C26   1.275       .  A
C26        C3256   1.445       .  S
O27         Zr36   2.393       .  S
O27          C29   1.276       .  A
O28         Zr40   2.495       .  S
O28          C29   1.300       .  A
C29         C565   1.478       .  S
O30         Zr33   2.448       .  S
O30          C32   1.286       .  A
O31         Zr39   2.388       .  S
O31          C32   1.283       .  A
C32         C577   1.489       .  S
Zr33         O34   2.437       .  S
Zr33         O35   2.436       .  S
Zr33         O41   2.382       .  S
Zr33         O42   2.354       .  S
Zr33         O45   2.372       .  S
Zr33         O43   2.361       .  S
O34          H54   0.990       .  S
O34          H59   0.990       .  S
O35          H55   0.990       .  S
Zr36         O37   2.435       .  S
Zr36         O38   2.436       .  S
Zr36         O42   2.360       .  S
Zr36         O41   2.372       .  S
Zr36         O46   2.374       .  S
Zr36         O44   2.353       .  S
O37        H2693   0.990       .  S
O38          H52   0.989       .  S
O38          H62   0.990       .  S
Zr39         O42   2.378       .  S
Zr39         O44   2.386       .  S
Zr39         O45   2.376       .  S
Zr40         O41   2.402       .  S
Zr40         O43   2.406       .  S
Zr40         O46   2.372       .  S
O41          H49   0.965       .  S
O44          H48   0.966       .  S
O45          H50   0.966       .  S
H53        O2677   0.990       .  S
O63         Zr75   2.409       .  S
O63          C65   1.280       .  A
O64        Zr101   2.448       .  S
O64          C65   1.294       .  A
C65         C601   1.489       .  S
O66         Zr78   2.427       .  S
O66          C68   1.284       .  A
O67        Zr102   2.429       .  S
O67          C68   1.286       .  A
C68        C3181   1.464       .  S
O69         Zr78   2.397       .  S
O69          C71   1.281       .  A
O70        Zr101   2.512       .  S
O70          C71   1.302       .  A
C71         C505   1.500       .  S
O72         Zr75   2.419       .  S
O72          C74   1.285       .  A
O73        Zr102   2.458       .  S
O73          C74   1.293       .  A
C74         C493   1.496       .  S
Zr75         O76   2.433       .  S
Zr75         O77   2.435       .  S
Zr75         O81   2.382       .  S
Zr75         O82   2.361       .  S
Zr75        O105   2.380       .  S
Zr75        O107   2.360       .  S
O76         H119   0.990       .  S
O77         H118   0.990       .  S
O77         H122   0.990       .  S
Zr78         O79   2.435       .  S
Zr78         O80   2.430       .  S
Zr78         O82   2.335       .  S
Zr78         O81   2.373       .  S
Zr78        O106   2.373       .  S
Zr78        O108   2.350       .  S
O79         H120   0.990       .  S
O79        H2763   0.990       .  S
O80         H113   0.991       .  S
O81        Zr101   2.396       .  S
O82        Zr102   2.379       .  S
O82         H109   0.964       .  S
O83         Zr95   2.495       .  S
O83          C85   1.297       .  A
O84        Zr102   2.445       .  S
O84          C85   1.291       .  A
C85         C517   1.511   1_545  S
O86         Zr98   2.403       .  S
O86          C88   1.274       .  A
O87        Zr101   2.480       .  S
O87          C88   1.291       .  A
C88         C532   1.497       .  S
O89         Zr98   2.354       .  S
O89          C91   1.272   1_545  A
O90        Zr102   2.415       .  S
O90          C91   1.284   1_545  A
C91        C1909   1.434       .  S
O92         Zr95   2.442       .  S
O92          C94   1.290       .  A
O93        Zr101   2.435       .  S
O93          C94   1.290       .  A
C94         C553   1.468       .  S
Zr95         O96   2.436       .  S
Zr95         O97   2.434       .  S
Zr95        O103   2.355       .  S
Zr95        O104   2.383       .  S
Zr95        O107   2.379       .  S
Zr95        O105   2.378       .  S
O96         H116   0.990       .  S
O96         H121   0.990       .  S
O97         H117   0.990       .  S
Zr98        O100   2.437       .  S
Zr98       O1419   2.433   1_545  S
Zr98        O104   2.338       .  S
Zr98        O103   2.361       .  S
Zr98        O108   2.364       .  S
Zr98        O106   2.346       .  S
O99       Zr1418   2.433       .  S
O99        H1435   0.990       .  S
O100        H114   0.990       .  S
O100        H124   0.990       .  S
Zr101       O104   2.402       .  S
Zr101       O106   2.381       .  S
Zr101       O107   2.418       .  S
Zr102       O103   2.398       .  S
Zr102       O105   2.386       .  S
Zr102       O108   2.379       .  S
O103        H111   0.965       .  S
O106        H110   0.960       .  S
O107        H112   0.965       .  S
H115       O1419   0.990       .  S
H123       O2719   0.990       .  S
O125       Zr137   2.411       .  S
O125        C127   1.281       .  A
O126       Zr163   2.433       .  S
O126        C127   1.287       .  A
C127       C3124   1.458   1_455  S
O128       Zr140   2.394       .  S
O128        C130   1.280       .  A
O129       Zr164   2.496       .  S
O129        C130   1.301       .  A
C130        C460   1.486       .  S
O131       Zr140   2.446       .  S
O131        C133   1.288       .  A
O132       Zr163   2.402       .  S
O132        C133   1.282       .  A
C133        C580   1.483       .  S
O134       Zr137   2.382       .  S
O134        C136   1.277       .  A
O135       Zr164   2.504       .  S
O135        C136   1.301       .  A
C136        C568   1.489       .  S
Zr137       O139   2.435       .  S
Zr137      O2778   2.433   1_455  S
Zr137       O143   2.356       .  S
Zr137       O144   2.368       .  S
Zr137       O167   2.371       .  S
Zr137       O169   2.354       .  S
O138      Zr2777   2.433       .  S
O138        H181   0.990       .  S
O139        H180   0.990       .  S
O139        H184   0.990   1_455  S
Zr140       O141   2.438       .  S
Zr140       O142   2.436       .  S
Zr140       O144   2.377       .  S
Zr140       O143   2.350       .  S
Zr140       O168   2.369       .  S
Zr140       O170   2.371       .  S
O141        H182   0.990       .  S
O141        H185   0.990       .  S
O142        H175   0.990       .  S
O143       Zr163   2.372       .  S
O144       Zr164   2.405       .  S
O144        H171   0.966       .  S
O145       Zr157   2.385       .  S
O145        C147   1.278       .  A
O146       Zr164   2.526       .  S
O146        C147   1.306       .  A
C147        C421   1.504       .  S
O148       Zr160   2.464       .  S
O148        C150   1.293       .  A
O149       Zr163   2.430       .  S
O149        C150   1.287       .  A
C150        C433   1.494       .  S
O151       Zr160   2.440       .  S
O151        C153   1.290       .  A
O152       Zr164   2.439       .  S
O152        C153   1.290       .  A
C153        C469   1.480       .  S
O154       Zr157   2.444       .  S
O154        C156   1.289       .  A
O155       Zr163   2.383       .  S
O155        C156   1.278       .  A
C156       C1765   1.460       .  S
Zr157       O158   2.436       .  S
Zr157       O159   2.434       .  S
Zr157       O165   2.374       .  S
Zr157       O166   2.348       .  S
Zr157       O169   2.341       .  S
Zr157       O167   2.385       .  S
O158        H178   0.990       .  S
O158       H1503   0.990       .  S
O159        H179   0.990       .  S
Zr160       O161   2.433       .  S
Zr160       O162   2.434       .  S
Zr160       O166   2.359       .  S
Zr160       O165   2.384       .  S
Zr160       O170   2.361       .  S
Zr160       O168   2.375       .  S
O161        H177   0.990       .  S
O162        H176   0.990       .  S
O162        H186   0.990       .  S
Zr163       O166   2.373       .  S
Zr163       O168   2.378       .  S
Zr163       O169   2.371       .  S
Zr164       O165   2.411       .  S
Zr164       O167   2.389       .  S
Zr164       O170   2.404       .  S
O165        H173   0.966       .  S
O168        H172   0.966       .  S
O169        H174   0.963       .  S
H183       O1478   0.990       .  S
O187       Zr199   2.411       .  S
O187        C189   1.282       .  A
O188       Zr225   2.486       .  S
O188        C189   1.298       .  A
C189        C400   1.487       .  S
O190       Zr202   2.418       .  S
O190        C192   1.284       .  A
O191       Zr226   2.463       .  S
O191        C192   1.294       .  A
C192        C409   1.499       .  S
O193       Zr202   2.415       .  S
O193        C195   1.284       .  A
O194       Zr225   2.412       .  S
O194        C195   1.284       .  A
C195        C628   1.482       .  S
O196       Zr199   2.433       .  S
O196        C198   1.286       .  A
O197       Zr226   2.425       .  S
O197        C198   1.287       .  A
C198        C544   1.466       .  S
Zr199       O200   2.434       .  S
Zr199       O201   2.436       .  S
Zr199       O205   2.370       .  S
Zr199       O206   2.347       .  S
Zr199       O229   2.358       .  S
Zr199       O231   2.373       .  S
O200        H243   0.990       .  S
O201        H242   0.990       .  S
O201        H246   0.990       .  S
Zr202       O203   2.437       .  S
Zr202       O204   2.435       .  S
Zr202       O206   2.363       .  S
Zr202       O205   2.376       .  S
Zr202       O230   2.359       .  S
Zr202       O232   2.379       .  S
O203        H244   0.990       .  S
O203        H247   0.990       .  S
O204        H237   0.990       .  S
O205       Zr225   2.383       .  S
O206       Zr226   2.385       .  S
O206        H233   0.965       .  S
O207       Zr219   2.402   1_565  S
O207        C209   1.275       .  A
O208       Zr226   2.424       .  S
O208        C209   1.283   1_545  A
C209       C1933   1.463       .  S
O210       Zr222   2.451       .  S
O210        C212   1.291       .  A
O211       Zr225   2.425       .  S
O211        C212   1.288       .  A
C212        C556   1.469       .  S
O213       Zr222   2.481       .  S
O213        C215   1.296       .  A
O214       Zr226   2.459       .  S
O214        C215   1.294       .  A
C215        C424   1.499       .  S
O216       Zr219   2.419       .  S
O216        C218   1.274       .  A
O217       Zr225   2.448       .  S
O217        C218   1.285       .  A
C218        C436   1.476       .  S
Zr219       O221   2.436       .  S
Zr219      O1540   2.440   1_545  S
Zr219       O227   2.376       .  S
Zr219       O228   2.354       .  S
Zr219       O231   2.371       .  S
Zr219       O229   2.368       .  S
O220      Zr1539   2.440       .  S
O220        H240   0.990       .  S
O220        H245   0.989       .  S
O221        H241   0.990       .  S
Zr222       O223   2.433       .  S
Zr222       O224   2.434       .  S
Zr222       O228   2.378       .  S
Zr222       O227   2.358       .  S
Zr222       O232   2.379       .  S
Zr222       O230   2.371       .  S
O223        H239   0.990       .  S
O224        H238   0.990       .  S
O224        H248   0.990       .  S
Zr225       O228   2.396       .  S
Zr225       O230   2.404       .  S
Zr225       O231   2.387       .  S
Zr226       O227   2.400       .  S
Zr226       O229   2.388       .  S
Zr226       O232   2.388       .  S
O227        H235   0.964       .  S
O230        H234   0.965       .  S
O231        H236   0.966       .  S
O249       Zr261   2.488       .  S
O249        C251   1.295       .  A
O250       Zr287   2.424       .  S
O250        C251   1.292       .  A
C251        C508   1.516       .  S
O252       Zr264   2.392       .  S
O252        C254   1.272       .  A
O253       Zr288   2.473       .  S
O253        C254   1.292       .  A
C254        C496   1.469       .  S
O255       Zr264   2.426       .  S
O255        C257   1.280       .  A
O256       Zr287   2.440       .  S
O256        C257   1.284       .  A
C257       C3016   1.482   1_455  S
O258       Zr261   2.491       .  S
O258        C260   1.299       .  A
O259       Zr288   2.409       .  S
O259        C260   1.284       .  A
C260        C457   1.486       .  S
Zr261       O262   2.433       .  S
Zr261       O263   2.434       .  S
Zr261       O267   2.369       .  S
Zr261       O268   2.376       .  S
Zr261       O291   2.372       .  S
Zr261       O293   2.395       .  S
O262        H305   0.990       .  S
O263        H304   0.990       .  S
O263        H308   0.990       .  S
Zr264       O266   2.442       .  S
Zr264      O2905   2.440   1_455  S
Zr264       O268   2.387       .  S
Zr264       O267   2.354       .  S
Zr264       O292   2.353       .  S
Zr264       O294   2.368       .  S
O265      Zr2904   2.440       .  S
O265        H306   0.990       .  S
O265        H309   0.990       .  S
O266        H299   0.989       .  S
O267       Zr287   2.389       .  S
O268       Zr288   2.407       .  S
O268        H295   0.965       .  S
O269       Zr281   2.472       .  S
O269        C271   1.294       .  A
O270       Zr288   2.442       .  S
O270        C271   1.291       .  A
C271        C385   1.509       .  S
O272       Zr284   2.370       .  S
O272        C274   1.275       .  A
O273       Zr287   2.450       .  S
O273        C274   1.291       .  A
C274        C448   1.463       .  S
O275       Zr284   2.371       .  S
O275        C277   1.274       .  A
O276       Zr288   2.466       .  S
O276        C277   1.292       .  A
C277        C412   1.472       .  S
O278       Zr281   2.498       .  S
O278        C280   1.298       .  A
O279       Zr287   2.450       .  S
O279        C280   1.293       .  A
C280        C397   1.516       .  S
Zr281       O282   2.436       .  S
Zr281       O283   2.434       .  S
Zr281       O289   2.390       .  S
Zr281       O290   2.363       .  S
Zr281       O293   2.386       .  S
Zr281       O291   2.380       .  S
O282        H302   0.990       .  S
O282        H307   0.990       .  S
O283        H303   0.990       .  S
Zr284       O285   2.434       .  S
Zr284       O286   2.437       .  S
Zr284       O290   2.351       .  S
Zr284       O289   2.355       .  S
Zr284       O294   2.359       .  S
Zr284       O292   2.356       .  S
O285        H301   0.990       .  S
O286        H300   0.990       .  S
O286        H310   0.990       .  S
Zr287       O290   2.377       .  S
Zr287       O292   2.379       .  S
Zr287       O293   2.406       .  S
Zr288       O289   2.398       .  S
Zr288       O291   2.407       .  S
Zr288       O294   2.372       .  S
O289        H297   0.966       .  S
O292        H296   0.964       .  S
O293        H298   0.966       .  S
O311       Zr323   2.461       .  S
O311        C313   1.292       .  A
O312       Zr349   2.443       .  S
O312        C313   1.290       .  A
C313        C529   1.488       .  S
O314       Zr326   2.431       .  S
O314        C316   1.281       .  A
O315       Zr350   2.481       .  S
O315        C316   1.293       .  A
C316        C388   1.500       .  S
O317       Zr326   2.441       .  S
O317        C319   1.287       .  A
O318       Zr349   2.439       .  S
O318        C319   1.289       .  A
C319        C649   1.479       .  S
O320       Zr323   2.435       .  S
O320        C322   1.289       .  A
O321       Zr350   2.446       .  S
O321        C322   1.292       .  A
C322        C472   1.477       .  S
Zr323       O324   2.434       .  S
Zr323       O325   2.435       .  S
Zr323       O329   2.378       .  S
Zr323       O330   2.373       .  S
Zr323       O353   2.379       .  S
Zr323       O355   2.363       .  S
O324        H367   0.990       .  S
O325        H366   0.990       .  S
O325        H370   0.990       .  S
Zr326       O327   2.440       .  S
Zr326       O328   2.435       .  S
Zr326       O330   2.367       .  S
Zr326       O329   2.371       .  S
Zr326       O354   2.372       .  S
Zr326       O356   2.376       .  S
O327        H368   0.989       .  S
O327        H371   0.990       .  S
O328        H361   0.990       .  S
O329       Zr349   2.382       .  S
O330       Zr350   2.417       .  S
O330        H357   0.965       .  S
O331       Zr343   2.391       .  S
O331        C333   1.277       .  A
O332       Zr350   2.518       .  S
O332        C333   1.305       .  A
C333        C520   1.491       .  S
O334       Zr346   2.436       .  S
O334        C336   1.286       .  A
O335       Zr349   2.404       .  S
O335        C336   1.282       .  A
C336        C481   1.454       .  S
O337       Zr346   2.436       .  S
O337        C339   1.277       .  A
O338       Zr350   2.480       .  S
O338        C339   1.293       .  A
C339        C640   1.488       .  S
O340       Zr343   2.429       .  S
O340        C342   1.285       .  A
O341       Zr349   2.429       .  S
O341        C342   1.287       .  A
C342       C1693   1.490       .  S
Zr343       O344   2.438       .  S
Zr343       O345   2.434       .  S
Zr343       O351   2.379       .  S
Zr343       O352   2.355       .  S
Zr343       O355   2.353       .  S
Zr343       O353   2.372       .  S
O344        H364   0.990       .  S
O344        H369   0.990       .  S
O345        H365   0.990       .  S
Zr346       O347   2.434       .  S
Zr346       O348   2.438       .  S
Zr346       O352   2.361       .  S
Zr346       O351   2.376       .  S
Zr346       O356   2.367       .  S
Zr346       O354   2.367       .  S
O347        H363   0.990       .  S
O348        H362   0.990       .  S
O348        H372   0.990       .  S
Zr349       O352   2.380       .  S
Zr349       O354   2.395       .  S
Zr349       O355   2.382       .  S
Zr350       O351   2.403       .  S
Zr350       O353   2.401       .  S
Zr350       O356   2.408       .  S
O351        H359   0.966       .  S
O354        H358   0.965       .  S
O355        H360   0.966       .  S
C373       C1662   1.490   1_545  S
C373        C374   1.409       .  A
C373        C378   1.418       .  A
C374        C375   1.404       .  A
C374        H383   1.083       .  S
C375        C376   1.411       .  A
C375        S379   1.790       .  S
C376       C2897   1.482       .  S
C376        C377   1.399       .  A
C377        C378   1.390       .  A
C377        H384   1.081       .  S
C378        S380   1.803       .  S
S379       H3022   1.400       .  S
S380       H1701   1.408       .  S
H381       S1700   1.408       .  S
H382       S3019   1.400       .  S
C385        C386   1.416       .  A
C385        C390   1.418       .  A
C386        C387   1.416       .  A
C386        H395   1.083       .  S
C387        C388   1.415       .  A
C387        S391   1.800       .  S
C388        C389   1.405       .  A
C389        C390   1.396       .  A
C389        H396   1.081       .  S
C390        S392   1.803       .  S
S391        H394   1.405       .  S
S392        H393   1.408       .  S
C397        C398   1.414       .  A
C397        C402   1.418       .  A
C398        C399   1.423       .  A
C398        H407   1.083       .  S
C399        C400   1.419       .  A
C399        S403   1.801       .  S
C400        C401   1.393       .  A
C401        C402   1.391       .  A
C401        H408   1.086       .  S
C402        S404   1.776       .  S
S403        H406   1.404       .  S
S404        H405   1.404       .  S
C409       C1070   1.419       .  A
C409       C1074   1.416       .  A
C410        C411   1.404       .  A
C410       C1069   1.419   1_554  A
C410       H1079   1.083   1_554  S
C411        C412   1.405       .  A
C411        S415   1.802       .  S
C412        C413   1.406       .  A
C413        C414   1.395       .  A
C413        H420   1.085       .  S
C414       C1069   1.416   1_554  A
C414       S1076   1.800       .  S
S415        H418   1.404       .  S
S416       C1074   1.800       .  S
S416        H417   1.395       .  S
H419       C1070   1.083       .  S
C421        C422   1.414       .  A
C421       C1086   1.414   1_554  A
C422       C1743   1.406       .  A
C422       H1751   1.084       .  S
C423       C1742   1.406   1_545  A
C423       C1084   1.412   1_554  A
C423        S427   1.805       .  S
C424       C1083   1.412       .  A
C424       C1745   1.412   1_545  A
C425        C426   1.417       .  A
C425       C1744   1.412       .  A
C425        H432   1.084       .  S
C426       C1081   1.414       .  A
C426        S428   1.798       .  S
S427        H430   1.401   1_554  S
S428       H1089   1.406       .  S
H429       S1088   1.406       .  S
H431       C1742   1.084       .  S
C433        C434   1.408       .  A
C433       C1758   1.419       .  A
C434        C435   1.407       .  A
C434        H443   1.084       .  S
C435       C1756   1.414       .  A
C435        S439   1.804       .  S
C436        C437   1.398       .  A
C436       C1755   1.414       .  A
C437        C438   1.397       .  A
C437        H444   1.085       .  S
C438       C1753   1.419   1_545  A
C438        S440   1.793       .  S
S439        H442   1.406       .  S
S440        H441   1.407   1_545  S
C445       C1476   1.460   1_545  S
C445        C446   1.407       .  A
C445        C450   1.405       .  A
C446        C447   1.399       .  A
C446       H1775   1.082   1_545  S
C447        C448   1.408       .  A
C447        S451   1.801       .  S
C448        C449   1.406       .  A
C449        C450   1.384       .  A
C449        H456   1.085       .  S
C450        S452   1.806       .  S
S451        H454   1.406       .  S
S452        H453   1.407       .  S
H455       C1766   1.082       .  S
C457        C458   1.410       .  A
C457        C462   1.409       .  A
C458        C459   1.411       .  A
C458        H467   1.083       .  S
C459        C460   1.413       .  A
C459        S463   1.801       .  S
C460        C461   1.409       .  A
C461        C462   1.397       .  A
C461        H468   1.083       .  S
C462        S464   1.805       .  S
S463        H466   1.405       .  S
S464        H465   1.407       .  S
C469        C470   1.406       .  A
C469        C474   1.411       .  A
C470        C471   1.409       .  A
C470        H479   1.084       .  S
C471        C472   1.415       .  A
C471        S475   1.802       .  S
C472        C473   1.402       .  A
C473        C474   1.394       .  A
C473        H480   1.084       .  S
C474        S476   1.808       .  S
S475        H478   1.400       .  S
S476        H477   1.407       .  S
C481        C482   1.398       .  A
C481        C486   1.407       .  A
C482        C483   1.393       .  A
C482        H491   1.085       .  S
C483        C484   1.413       .  A
C483       S3127   1.805       .  S
C484       C2767   1.458       .  S
C484        C485   1.403       .  A
C485        C486   1.396       .  A
C485        H492   1.083       .  S
C486        S488   1.802       .  S
S487       C3123   1.805   1_455  S
S487        H490   1.397       .  S
S488        H489   1.405       .  S
C493       C1154   1.419       .  A
C493       C1158   1.415       .  A
C494       C1153   1.419   1_554  A
C494       C3135   1.403       .  A
C494       H1163   1.083   1_554  S
C495        C496   1.405       .  A
C495       C3134   1.403   1_455  A
C495        S499   1.806       .  S
C496        C497   1.405       .  A
C497       C3138   1.396   1_455  A
C497        H504   1.082       .  S
C498       C1153   1.415   1_554  A
C498       C3137   1.396       .  A
C498       S1160   1.801       .  S
S499        H502   1.403       .  S
S500       C1158   1.801       .  S
S500        H501   1.406       .  S
H503       C1154   1.083       .  S
C505        C506   1.409       .  A
C505        C510   1.416       .  A
C506        C507   1.425       .  A
C506        H515   1.083       .  S
C507       C3148   1.429       .  A
C507        S511   1.796       .  S
C508        C509   1.403       .  A
C508       C3147   1.429   1_455  A
C509       C3150   1.386   1_455  A
C509        H516   1.082       .  S
C510       C3149   1.386       .  A
C510        S512   1.802       .  S
S511       H3154   1.408       .  S
S512        H513   1.398       .  S
H514       S3151   1.408   1_655  S
C517       C1178   1.408       .  A
C517       C1842   1.421       .  A
C518       C1177   1.408       .  A
C518       C1839   1.415   1_556  A
C518        H527   1.084   1_565  S
C519        C520   1.422       .  A
C519       C1838   1.415   1_554  A
C519       S1843   1.805       .  S
C520        C521   1.404   1_554  A
C521       C1182   1.406       .  A
C521        H528   1.085       .  S
C522       C1837   1.421       .  A
C522       C1181   1.406       .  A
C522        S524   1.797       .  S
S523       C1839   1.805       .  S
S523       H1846   1.402       .  S
S524        H525   1.408       .  S
H526       S1843   1.402       .  S
C529        C534   1.409       .  A
C529       C1850   1.405       .  A
C530        C531   1.407       .  A
C530       C1849   1.405   1_545  A
C530        H539   1.084       .  S
C531        C532   1.417       .  A
C531        S535   1.798       .  S
C532       C1853   1.412       .  A
C533        C534   1.408       .  A
C533       C1852   1.412       .  A
C533        H540   1.083       .  S
C534        S536   1.807       .  S
S535        H538   1.406       .  S
S536        H537   1.407       .  S
C541       C2708   1.464   1_455  S
C541        C542   1.402       .  A
C541        C546   1.413       .  A
C542        C543   1.395       .  A
C542        H551   1.084   1_455  S
C543        C544   1.409       .  A
C543        S547   1.805       .  S
C544        C545   1.403       .  A
C545        C546   1.401       .  A
C545        H552   1.083       .  S
C546        S548   1.808       .  S
S547        H550   1.404       .  S
S548       H3189   1.401       .  S
H549       S3188   1.401       .  S
C553        C554   1.402       .  A
C553        C558   1.411       .  A
C554        C555   1.400       .  A
C554        H563   1.085       .  S
C555        C556   1.413       .  A
C555        S559   1.804       .  S
C556        C557   1.402       .  A
C557        C558   1.398       .  A
C557        H564   1.084       .  S
C558        S560   1.804       .  S
S559        H562   1.404       .  S
S560        H561   1.407       .  S
C565        C566   1.412       .  A
C565        C570   1.406       .  A
C566       C3867   1.420       .  A
C566        H575   1.083       .  S
C567        C568   1.418       .  A
C567       C3866   1.420   1_454  A
C567        S571   1.799       .  S
C568        C569   1.405       .  A
C569       C3870   1.387   1_454  A
C569        H576   1.084       .  S
C570       C3869   1.387       .  A
C570        S572   1.800       .  S
S571        H574   1.402       .  S
S572        H573   1.406       .  S
C577        C578   1.404       .  A
C577        C582   1.419       .  A
C578        C579   1.382       .  A
C578        H587   1.083       .  S
C579       C3220   1.415       .  A
C579        S583   1.798       .  S
C580        C581   1.408       .  A
C580       C3219   1.415       .  A
C581       C3222   1.405   1_455  A
C581        H588   1.084       .  S
C582       C3221   1.405       .  A
C582        S584   1.799       .  S
S583       H3226   1.397       .  S
S584        H585   1.408       .  S
H586       S3223   1.397       .  S
C589       C1411   1.434       .  S
C589        C590   1.399       .  A
C589        C594   1.411       .  A
C590        C591   1.394       .  A
C590        H599   1.083       .  S
C591        C592   1.405       .  A
C591        S595   1.804       .  S
C592        C593   1.397       .  A
C593        C594   1.382       .  A
C593        H600   1.085       .  S
C594        S596   1.809       .  S
S595        H598   1.406       .  S
S596        H597   1.403       .  S
C601        C602   1.406       .  A
C601        C606   1.428       .  A
C602        C603   1.397       .  A
C602        H611   1.083       .  S
C603        C604   1.411       .  A
C603        S607   1.805       .  S
C604        C605   1.393       .  A
C605        C606   1.398       .  A
C605        H612   1.083       .  S
C606        S608   1.812       .  S
S607        H610   1.407       .  S
S608        H609   1.407       .  S
C613       C1529   1.463       .  S
C613        C614   1.409       .  A
C613        C618   1.408       .  A
C614        C615   1.386       .  A
C614        H623   1.082       .  S
C615        C616   1.398       .  A
C615        S619   1.801       .  S
C616       C2666   1.445   1_455  S
C616        C617   1.402       .  A
C617        C618   1.393       .  A
C617        H624   1.080       .  S
C618        S620   1.802       .  S
S619        H622   1.405       .  S
S620       H1941   1.407       .  S
H621       S1940   1.407       .  S
C625        C626   1.402       .  A
C625        C630   1.403       .  A
C626        C627   1.391       .  A
C626        H635   1.085       .  S
C627        C628   1.418       .  A
C627        S631   1.803       .  S
C628        C629   1.414       .  A
C629        C630   1.391       .  A
C629        H636   1.083       .  S
C630        S632   1.804       .  S
S631        H634   1.406       .  S
S632        H633   1.407       .  S
C637        C638   1.411       .  A
C637        C642   1.422       .  A
C638       C1299   1.422       .  A
C638        H647   1.083       .  S
C639        C640   1.421       .  A
C639       C1298   1.422   1_554  A
C639        S643   1.802       .  S
C640        C641   1.393       .  A
C641       C1302   1.392   1_554  A
C641        H648   1.081       .  S
C642       C1301   1.392       .  A
C642        S644   1.805       .  S
S643        H646   1.404       .  S
S644        H645   1.399       .  S
C649        C650   1.406       .  A
C649        C654   1.410       .  A
C650        C651   1.401       .  A
C650        H659   1.084       .  S
C651        C652   1.410       .  A
C651        S655   1.805       .  S
C652        C653   1.404       .  A
C653        C654   1.401       .  A
C653        H660   1.084       .  S
C654        S656   1.799       .  S
S655        H658   1.403       .  S
S656        H657   1.406       .  S
O661       Zr673   2.465       .  S
O661        C663   1.292       .  A
O662       Zr699   2.403       .  S
O662        C663   1.282       .  A
C663       C1312   1.471       .  S
O664       Zr676   2.372       .  S
O664        C666   1.274       .  A
O665       Zr700   2.522       .  S
O665        C666   1.304       .  A
C666       C1297   1.498       .  S
O667       Zr676   2.369       .  S
O667        C669   1.275       .  A
O668       Zr699   2.397       .  S
O668        C669   1.279       .  A
C669       C1252   1.432       .  S
O670       Zr673   2.405       .  S
O670        C672   1.283       .  A
O671       Zr700   2.421       .  S
O671        C672   1.288       .  A
C672       C1285   1.458       .  S
Zr673       O674   2.434       .  S
Zr673       O675   2.437       .  S
Zr673       O679   2.344       .  S
Zr673       O680   2.386       .  S
Zr673       O703   2.367       .  S
Zr673       O705   2.367       .  S
O674        H717   0.990       .  S
O675        H716   0.990       .  S
O675        H720   0.990       .  S
Zr676       O677   2.437       .  S
Zr676       O678   2.433       .  S
Zr676       O680   2.350       .  S
Zr676       O679   2.351       .  S
Zr676       O704   2.350       .  S
Zr676       O706   2.370       .  S
O677        H718   0.990       .  S
O677        H721   0.990       .  S
O678        H711   0.990       .  S
O679       Zr699   2.368       .  S
O680       Zr700   2.399       .  S
O680        H707   0.966       .  S
O681       Zr693   2.414       .  S
O681        C683   1.283       .  A
O682       Zr700   2.435       .  S
O682        C683   1.291       .  A
C683       C1264   1.464       .  S
O684       Zr696   2.415       .  S
O684        C686   1.276       .  A
O685       Zr699   2.398       .  S
O685        C686   1.275       .  A
C686       C3916   1.445       .  S
O687       Zr696   2.393       .  S
O687        C689   1.276       .  A
O688       Zr700   2.495       .  S
O688        C689   1.300       .  A
C689       C1225   1.478       .  S
O690       Zr693   2.448       .  S
O690        C692   1.286       .  A
O691       Zr699   2.388       .  S
O691        C692   1.283       .  A
C692       C1237   1.489       .  S
Zr693       O694   2.437       .  S
Zr693       O695   2.436       .  S
Zr693       O701   2.382       .  S
Zr693       O702   2.354       .  S
Zr693       O705   2.372       .  S
Zr693       O703   2.361       .  S
O694        H714   0.990       .  S
O694        H719   0.990       .  S
O695        H715   0.990       .  S
Zr696       O697   2.435       .  S
Zr696       O698   2.436       .  S
Zr696       O702   2.360       .  S
Zr696       O701   2.372       .  S
Zr696       O706   2.374       .  S
Zr696       O704   2.353       .  S
O697       H3353   0.990       .  S
O698        H712   0.989       .  S
O698        H722   0.990       .  S
Zr699       O702   2.378       .  S
Zr699       O704   2.386       .  S
Zr699       O705   2.376       .  S
Zr700       O701   2.402       .  S
Zr700       O703   2.406       .  S
Zr700       O706   2.372       .  S
O701        H709   0.965       .  S
O704        H708   0.966       .  S
O705        H710   0.966       .  S
H713       O3337   0.990       .  S
O723       Zr735   2.409       .  S
O723        C725   1.280       .  A
O724       Zr761   2.448       .  S
O724        C725   1.294       .  A
C725       C1261   1.489       .  S
O726       Zr738   2.427       .  S
O726        C728   1.284       .  A
O727       Zr762   2.429       .  S
O727        C728   1.286       .  A
C728       C3841   1.464       .  S
O729       Zr738   2.397       .  S
O729        C731   1.281       .  A
O730       Zr761   2.512       .  S
O730        C731   1.302       .  A
C731       C1165   1.500       .  S
O732       Zr735   2.419       .  S
O732        C734   1.285       .  A
O733       Zr762   2.458       .  S
O733        C734   1.293       .  A
C734       C1153   1.496       .  S
Zr735       O736   2.433       .  S
Zr735       O737   2.435       .  S
Zr735       O741   2.382       .  S
Zr735       O742   2.361       .  S
Zr735       O765   2.380       .  S
Zr735       O767   2.360       .  S
O736        H779   0.990       .  S
O737        H778   0.990       .  S
O737        H782   0.990       .  S
Zr738       O739   2.435       .  S
Zr738       O740   2.430       .  S
Zr738       O742   2.335       .  S
Zr738       O741   2.373       .  S
Zr738       O766   2.373       .  S
Zr738       O768   2.350       .  S
O739        H780   0.990       .  S
O739       H3423   0.990       .  S
O740        H773   0.991       .  S
O741       Zr761   2.396       .  S
O742       Zr762   2.379       .  S
O742        H769   0.964       .  S
O743       Zr755   2.495       .  S
O743        C745   1.297       .  A
O744       Zr762   2.445       .  S
O744        C745   1.291       .  A
C745       C1177   1.511   1_545  S
O746       Zr758   2.403       .  S
O746        C748   1.274       .  A
O747       Zr761   2.480       .  S
O747        C748   1.291       .  A
C748       C1192   1.497       .  S
O749       Zr758   2.354       .  S
O749        C751   1.272   1_545  A
O750       Zr762   2.415       .  S
O750        C751   1.284   1_545  A
C751       C2569   1.434       .  S
O752       Zr755   2.442       .  S
O752        C754   1.290       .  A
O753       Zr761   2.435       .  S
O753        C754   1.290       .  A
C754       C1213   1.468       .  S
Zr755       O756   2.436       .  S
Zr755       O757   2.434       .  S
Zr755       O763   2.355       .  S
Zr755       O764   2.383       .  S
Zr755       O767   2.379       .  S
Zr755       O765   2.378       .  S
O756        H776   0.990       .  S
O756        H781   0.990       .  S
O757        H777   0.990       .  S
Zr758      O2079   2.433   1_545  S
Zr758       O760   2.437       .  S
Zr758       O764   2.338       .  S
Zr758       O763   2.361       .  S
Zr758       O768   2.364       .  S
Zr758       O766   2.346       .  S
O759      Zr2078   2.433       .  S
O759       H2095   0.990       .  S
O760        H774   0.990       .  S
O760        H784   0.990       .  S
Zr761       O764   2.402       .  S
Zr761       O766   2.381       .  S
Zr761       O767   2.418       .  S
Zr762       O763   2.398       .  S
Zr762       O765   2.386       .  S
Zr762       O768   2.379       .  S
O763        H771   0.965       .  S
O766        H770   0.960       .  S
O767        H772   0.965       .  S
H775       O2079   0.990       .  S
H783       O3379   0.990       .  S
O785       Zr797   2.411       .  S
O785        C787   1.281       .  A
O786       Zr823   2.433       .  S
O786        C787   1.287       .  A
C787       C3784   1.458   1_455  S
O788       Zr800   2.394       .  S
O788        C790   1.280       .  A
O789       Zr824   2.496       .  S
O789        C790   1.301       .  A
C790       C1120   1.486       .  S
O791       Zr800   2.446       .  S
O791        C793   1.288       .  A
O792       Zr823   2.402       .  S
O792        C793   1.282       .  A
C793       C1240   1.483       .  S
O794       Zr797   2.382       .  S
O794        C796   1.277       .  A
O795       Zr824   2.504       .  S
O795        C796   1.301       .  A
C796       C1228   1.489       .  S
Zr797      O3438   2.433   1_455  S
Zr797       O799   2.435       .  S
Zr797       O803   2.356       .  S
Zr797       O804   2.368       .  S
Zr797       O827   2.371       .  S
Zr797       O829   2.354       .  S
O798      Zr3437   2.433       .  S
O798        H841   0.990       .  S
O799        H840   0.990       .  S
O799        H844   0.990   1_455  S
Zr800       O801   2.438       .  S
Zr800       O802   2.436       .  S
Zr800       O804   2.377       .  S
Zr800       O803   2.350       .  S
Zr800       O828   2.369       .  S
Zr800       O830   2.371       .  S
O801        H842   0.990       .  S
O801        H845   0.990       .  S
O802        H835   0.990       .  S
O803       Zr823   2.372       .  S
O804       Zr824   2.405       .  S
O804        H831   0.966       .  S
O805       Zr817   2.385       .  S
O805        C807   1.278       .  A
O806       Zr824   2.526       .  S
O806        C807   1.306       .  A
C807       C1081   1.504       .  S
O808       Zr820   2.464       .  S
O808        C810   1.293       .  A
O809       Zr823   2.430       .  S
O809        C810   1.287       .  A
C810       C1093   1.494       .  S
O811       Zr820   2.440       .  S
O811        C813   1.290       .  A
O812       Zr824   2.439       .  S
O812        C813   1.290       .  A
C813       C1129   1.480       .  S
O814       Zr817   2.444       .  S
O814        C816   1.289       .  A
O815       Zr823   2.383       .  S
O815        C816   1.278       .  A
C816       C2425   1.460       .  S
Zr817       O818   2.436       .  S
Zr817       O819   2.434       .  S
Zr817       O825   2.374       .  S
Zr817       O826   2.348       .  S
Zr817       O829   2.341       .  S
Zr817       O827   2.385       .  S
O818        H838   0.990       .  S
O818       H2163   0.990       .  S
O819        H839   0.990       .  S
Zr820       O821   2.433       .  S
Zr820       O822   2.434       .  S
Zr820       O826   2.359       .  S
Zr820       O825   2.384       .  S
Zr820       O830   2.361       .  S
Zr820       O828   2.375       .  S
O821        H837   0.990       .  S
O822        H836   0.990       .  S
O822        H846   0.990       .  S
Zr823       O826   2.373       .  S
Zr823       O828   2.378       .  S
Zr823       O829   2.371       .  S
Zr824       O825   2.411       .  S
Zr824       O827   2.389       .  S
Zr824       O830   2.404       .  S
O825        H833   0.966       .  S
O828        H832   0.966       .  S
O829        H834   0.963       .  S
H843       O2138   0.990       .  S
O847       Zr859   2.411       .  S
O847        C849   1.282       .  A
O848       Zr885   2.486       .  S
O848        C849   1.298       .  A
C849       C1060   1.487       .  S
O850       Zr862   2.418       .  S
O850        C852   1.284       .  A
O851       Zr886   2.463       .  S
O851        C852   1.294       .  A
C852       C1069   1.499       .  S
O853       Zr862   2.415       .  S
O853        C855   1.284       .  A
O854       Zr885   2.412       .  S
O854        C855   1.284       .  A
C855       C1288   1.482       .  S
O856       Zr859   2.433       .  S
O856        C858   1.286       .  A
O857       Zr886   2.425       .  S
O857        C858   1.287       .  A
C858       C1204   1.466       .  S
Zr859       O860   2.434       .  S
Zr859       O861   2.436       .  S
Zr859       O865   2.370       .  S
Zr859       O866   2.347       .  S
Zr859       O889   2.358       .  S
Zr859       O891   2.373       .  S
O860        H903   0.990       .  S
O861        H902   0.990       .  S
O861        H906   0.990       .  S
Zr862       O863   2.437       .  S
Zr862       O864   2.435       .  S
Zr862       O866   2.363       .  S
Zr862       O865   2.376       .  S
Zr862       O890   2.359       .  S
Zr862       O892   2.379       .  S
O863        H904   0.990       .  S
O863        H907   0.990       .  S
O864        H897   0.990       .  S
O865       Zr885   2.383       .  S
O866       Zr886   2.385       .  S
O866        H893   0.965       .  S
O867       Zr879   2.402   1_565  S
O867        C869   1.275       .  A
O868       Zr886   2.424       .  S
O868        C869   1.283   1_545  A
C869       C2593   1.463       .  S
O870       Zr882   2.451       .  S
O870        C872   1.291       .  A
O871       Zr885   2.425       .  S
O871        C872   1.288       .  A
C872       C1216   1.469       .  S
O873       Zr882   2.481       .  S
O873        C875   1.296       .  A
O874       Zr886   2.459       .  S
O874        C875   1.294       .  A
C875       C1084   1.499       .  S
O876       Zr879   2.419       .  S
O876        C878   1.274       .  A
O877       Zr885   2.448       .  S
O877        C878   1.285       .  A
C878       C1096   1.476       .  S
Zr879      O2200   2.440   1_545  S
Zr879       O881   2.436       .  S
Zr879       O887   2.376       .  S
Zr879       O888   2.354       .  S
Zr879       O891   2.371       .  S
Zr879       O889   2.368       .  S
O880      Zr2199   2.440       .  S
O880        H900   0.990       .  S
O880        H905   0.989       .  S
O881        H901   0.990       .  S
Zr882       O883   2.433       .  S
Zr882       O884   2.434       .  S
Zr882       O888   2.378       .  S
Zr882       O887   2.358       .  S
Zr882       O892   2.379       .  S
Zr882       O890   2.371       .  S
O883        H899   0.990       .  S
O884        H898   0.990       .  S
O884        H908   0.990       .  S
Zr885       O888   2.396       .  S
Zr885       O890   2.404       .  S
Zr885       O891   2.387       .  S
Zr886       O887   2.400       .  S
Zr886       O889   2.388       .  S
Zr886       O892   2.388       .  S
O887        H895   0.964       .  S
O890        H894   0.965       .  S
O891        H896   0.966       .  S
O909       Zr921   2.488       .  S
O909        C911   1.295       .  A
O910       Zr947   2.424       .  S
O910        C911   1.292       .  A
C911       C1168   1.516       .  S
O912       Zr924   2.392       .  S
O912        C914   1.272       .  A
O913       Zr948   2.473       .  S
O913        C914   1.292       .  A
C914       C1156   1.469       .  S
O915       Zr924   2.426       .  S
O915        C917   1.280       .  A
O916       Zr947   2.440       .  S
O916        C917   1.284       .  A
C917       C3676   1.482   1_455  S
O918       Zr921   2.491       .  S
O918        C920   1.299       .  A
O919       Zr948   2.409       .  S
O919        C920   1.284       .  A
C920       C1117   1.486       .  S
Zr921       O922   2.433       .  S
Zr921       O923   2.434       .  S
Zr921       O927   2.369       .  S
Zr921       O928   2.376       .  S
Zr921       O951   2.372       .  S
Zr921       O953   2.395       .  S
O922        H965   0.990       .  S
O923        H964   0.990       .  S
O923        H968   0.990       .  S
Zr924      O3565   2.440   1_455  S
Zr924       O926   2.442       .  S
Zr924       O928   2.387       .  S
Zr924       O927   2.354       .  S
Zr924       O952   2.353       .  S
Zr924       O954   2.368       .  S
O925      Zr3564   2.440       .  S
O925        H966   0.990       .  S
O925        H969   0.990       .  S
O926        H959   0.989       .  S
O927       Zr947   2.389       .  S
O928       Zr948   2.407       .  S
O928        H955   0.965       .  S
O929       Zr941   2.472       .  S
O929        C931   1.294       .  A
O930       Zr948   2.442       .  S
O930        C931   1.291       .  A
C931       C1045   1.509       .  S
O932       Zr944   2.370       .  S
O932        C934   1.275       .  A
O933       Zr947   2.450       .  S
O933        C934   1.291       .  A
C934       C1108   1.463       .  S
O935       Zr944   2.371       .  S
O935        C937   1.274       .  A
O936       Zr948   2.466       .  S
O936        C937   1.292       .  A
C937       C1072   1.472       .  S
O938       Zr941   2.498       .  S
O938        C940   1.298       .  A
O939       Zr947   2.450       .  S
O939        C940   1.293       .  A
C940       C1057   1.516       .  S
Zr941       O942   2.436       .  S
Zr941       O943   2.434       .  S
Zr941       O949   2.390       .  S
Zr941       O950   2.363       .  S
Zr941       O953   2.386       .  S
Zr941       O951   2.380       .  S
O942        H962   0.990       .  S
O942        H967   0.990       .  S
O943        H963   0.990       .  S
Zr944       O945   2.434       .  S
Zr944       O946   2.437       .  S
Zr944       O950   2.351       .  S
Zr944       O949   2.355       .  S
Zr944       O954   2.359       .  S
Zr944       O952   2.356       .  S
O945        H961   0.990       .  S
O946        H960   0.990       .  S
O946        H970   0.990       .  S
Zr947       O950   2.377       .  S
Zr947       O952   2.379       .  S
Zr947       O953   2.406       .  S
Zr948       O949   2.398       .  S
Zr948       O951   2.407       .  S
Zr948       O954   2.372       .  S
O949        H957   0.966       .  S
O952        H956   0.964       .  S
O953        H958   0.966       .  S
O971       Zr983   2.461       .  S
O971        C973   1.292       .  A
O972      Zr1009   2.443       .  S
O972        C973   1.290       .  A
C973       C1189   1.488       .  S
O974       Zr986   2.431       .  S
O974        C976   1.281       .  A
O975      Zr1010   2.481       .  S
O975        C976   1.293       .  A
C976       C1048   1.500       .  S
O977       Zr986   2.441       .  S
O977        C979   1.287       .  A
O978      Zr1009   2.439       .  S
O978        C979   1.289       .  A
C979       C1309   1.479       .  S
O980       Zr983   2.435       .  S
O980        C982   1.289       .  A
O981      Zr1010   2.446       .  S
O981        C982   1.292       .  A
C982       C1132   1.477       .  S
Zr983       O984   2.434       .  S
Zr983       O985   2.435       .  S
Zr983       O989   2.378       .  S
Zr983       O990   2.373       .  S
Zr983      O1013   2.379       .  S
Zr983      O1015   2.363       .  S
O984       H1027   0.990       .  S
O985       H1026   0.990       .  S
O985       H1030   0.990       .  S
Zr986       O987   2.440       .  S
Zr986       O988   2.435       .  S
Zr986       O990   2.367       .  S
Zr986       O989   2.371       .  S
Zr986      O1014   2.372       .  S
Zr986      O1016   2.376       .  S
O987       H1028   0.989       .  S
O987       H1031   0.990       .  S
O988       H1021   0.990       .  S
O989      Zr1009   2.382       .  S
O990      Zr1010   2.417       .  S
O990       H1017   0.965       .  S
O991      Zr1003   2.391       .  S
O991        C993   1.277       .  A
O992      Zr1010   2.518       .  S
O992        C993   1.305       .  A
C993       C1180   1.491       .  S
O994      Zr1006   2.436       .  S
O994        C996   1.286       .  A
O995      Zr1009   2.404       .  S
O995        C996   1.282       .  A
C996       C1141   1.454       .  S
O997      Zr1006   2.436       .  S
O997        C999   1.277       .  A
O998      Zr1010   2.480       .  S
O998        C999   1.293       .  A
C999       C1300   1.488       .  S
O1000     Zr1003   2.429       .  S
O1000      C1002   1.285       .  A
O1001     Zr1009   2.429       .  S
O1001      C1002   1.287       .  A
C1002      C2353   1.490       .  S
Zr1003     O1004   2.438       .  S
Zr1003     O1005   2.434       .  S
Zr1003     O1011   2.379       .  S
Zr1003     O1012   2.355       .  S
Zr1003     O1015   2.353       .  S
Zr1003     O1013   2.372       .  S
O1004      H1024   0.990       .  S
O1004      H1029   0.990       .  S
O1005      H1025   0.990       .  S
Zr1006     O1007   2.434       .  S
Zr1006     O1008   2.438       .  S
Zr1006     O1012   2.361       .  S
Zr1006     O1011   2.376       .  S
Zr1006     O1016   2.367       .  S
Zr1006     O1014   2.367       .  S
O1007      H1023   0.990       .  S
O1008      H1022   0.990       .  S
O1008      H1032   0.990       .  S
Zr1009     O1012   2.380       .  S
Zr1009     O1014   2.395       .  S
Zr1009     O1015   2.382       .  S
Zr1010     O1011   2.403       .  S
Zr1010     O1013   2.401       .  S
Zr1010     O1016   2.408       .  S
O1011      H1019   0.966       .  S
O1014      H1018   0.965       .  S
O1015      H1020   0.966       .  S
C1033      C2322   1.490   1_545  S
C1033      C1034   1.409       .  A
C1033      C1038   1.418       .  A
C1034      C1035   1.404       .  A
C1034      H1043   1.083       .  S
C1035      C1036   1.411       .  A
C1035      S1039   1.790       .  S
C1036      C3557   1.482       .  S
C1036      C1037   1.399       .  A
C1037      C1038   1.390       .  A
C1037      H1044   1.081       .  S
C1038      S1040   1.803       .  S
S1039      H3682   1.400       .  S
S1040      H2361   1.408       .  S
H1041      S2360   1.408       .  S
H1042      S3679   1.400       .  S
C1045      C1046   1.416       .  A
C1045      C1050   1.418       .  A
C1046      C1047   1.416       .  A
C1046      H1055   1.083       .  S
C1047      C1048   1.415       .  A
C1047      S1051   1.800       .  S
C1048      C1049   1.405       .  A
C1049      C1050   1.396       .  A
C1049      H1056   1.081       .  S
C1050      S1052   1.803       .  S
S1051      H1054   1.405       .  S
S1052      H1053   1.408       .  S
C1057      C1058   1.414       .  A
C1057      C1062   1.418       .  A
C1058      C1059   1.423       .  A
C1058      H1067   1.083       .  S
C1059      C1060   1.419       .  A
C1059      S1063   1.801       .  S
C1060      C1061   1.393       .  A
C1061      C1062   1.391       .  A
C1061      H1068   1.086       .  S
C1062      S1064   1.776       .  S
S1063      H1066   1.404       .  S
S1064      H1065   1.404       .  S
C1070      C1071   1.404       .  A
C1071      C1072   1.405       .  A
C1071      S1075   1.802       .  S
C1072      C1073   1.406       .  A
C1073      C1074   1.395       .  A
C1073      H1080   1.085       .  S
S1075      H1078   1.404       .  S
S1076      H1077   1.395   1_554  S
C1081      C1082   1.414       .  A
C1082      C2403   1.406       .  A
C1082      H2411   1.084       .  S
C1083      C2402   1.406   1_545  A
C1083      S1087   1.805       .  S
C1084      C2405   1.412   1_545  A
C1085      C2404   1.412       .  A
C1085      C1086   1.417       .  A
C1085      H1092   1.084       .  S
C1086      S1088   1.798       .  S
S1087      H1090   1.401       .  S
H1091      C2402   1.084       .  S
C1093      C1094   1.408       .  A
C1093      C2418   1.419       .  A
C1094      C1095   1.407       .  A
C1094      H1103   1.084       .  S
C1095      C2416   1.414       .  A
C1095      S1099   1.804       .  S
C1096      C2415   1.414       .  A
C1096      C1097   1.398       .  A
C1097      C1098   1.397       .  A
C1097      H1104   1.085       .  S
C1098      C2413   1.419   1_545  A
C1098      S1100   1.793       .  S
S1099      H1102   1.406       .  S
S1100      H1101   1.407   1_545  S
C1105      C2136   1.460   1_545  S
C1105      C1106   1.407       .  A
C1105      C1110   1.405       .  A
C1106      C1107   1.399       .  A
C1106      H2435   1.082   1_545  S
C1107      C1108   1.408       .  A
C1107      S1111   1.801       .  S
C1108      C1109   1.406       .  A
C1109      C1110   1.384       .  A
C1109      H1116   1.085       .  S
C1110      S1112   1.806       .  S
S1111      H1114   1.406       .  S
S1112      H1113   1.407       .  S
H1115      C2426   1.082       .  S
C1117      C1118   1.410       .  A
C1117      C1122   1.409       .  A
C1118      C1119   1.411       .  A
C1118      H1127   1.083       .  S
C1119      C1120   1.413       .  A
C1119      S1123   1.801       .  S
C1120      C1121   1.409       .  A
C1121      C1122   1.397       .  A
C1121      H1128   1.083       .  S
C1122      S1124   1.805       .  S
S1123      H1126   1.405       .  S
S1124      H1125   1.407       .  S
C1129      C1130   1.406       .  A
C1129      C1134   1.411       .  A
C1130      C1131   1.409       .  A
C1130      H1139   1.084       .  S
C1131      C1132   1.415       .  A
C1131      S1135   1.802       .  S
C1132      C1133   1.402       .  A
C1133      C1134   1.394       .  A
C1133      H1140   1.084       .  S
C1134      S1136   1.808       .  S
S1135      H1138   1.400       .  S
S1136      H1137   1.407       .  S
C1141      C1142   1.398       .  A
C1141      C1146   1.407       .  A
C1142      C1143   1.393       .  A
C1142      H1151   1.085       .  S
C1143      C1144   1.413       .  A
C1143      S3787   1.805       .  S
C1144      C3427   1.458       .  S
C1144      C1145   1.403       .  A
C1145      C1146   1.396       .  A
C1145      H1152   1.083       .  S
C1146      S1148   1.802       .  S
S1147      C3783   1.805   1_455  S
S1147      H1150   1.397       .  S
S1148      H1149   1.405       .  S
C1154      C3795   1.403       .  A
C1155      C3794   1.403   1_455  A
C1155      C1156   1.405       .  A
C1155      S1159   1.806       .  S
C1156      C1157   1.405       .  A
C1157      C3798   1.396   1_455  A
C1157      H1164   1.082       .  S
C1158      C3797   1.396       .  A
S1159      H1162   1.403       .  S
S1160      H1161   1.406   1_554  S
C1165      C1166   1.409       .  A
C1165      C1170   1.416       .  A
C1166      C1167   1.425       .  A
C1166      H1175   1.083       .  S
C1167      C3808   1.429       .  A
C1167      S1171   1.796       .  S
C1168      C3807   1.429   1_455  A
C1168      C1169   1.403       .  A
C1169      C3810   1.386   1_455  A
C1169      H1176   1.082       .  S
C1170      C3809   1.386       .  A
C1170      S1172   1.802       .  S
S1171      H3814   1.408       .  S
S1172      H1173   1.398       .  S
H1174      S3811   1.408   1_655  S
C1177      C2502   1.421       .  A
C1178      C2499   1.415       .  A
C1178      H1187   1.084   1_565  S
C1179      C2498   1.415       .  A
C1179      C1180   1.422       .  A
C1179      S2503   1.805       .  S
C1180      C1181   1.404       .  A
C1181      H1188   1.085       .  S
C1182      C2497   1.421       .  A
C1182      S1184   1.797       .  S
S1183      C2499   1.805       .  S
S1183      H2506   1.402       .  S
S1184      H1185   1.408       .  S
H1186      S2503   1.402       .  S
C1189      C2510   1.405       .  A
C1189      C1194   1.409       .  A
C1190      C2509   1.405   1_545  A
C1190      C1191   1.407       .  A
C1190      H1199   1.084       .  S
C1191      C1192   1.417       .  A
C1191      S1195   1.798       .  S
C1192      C2513   1.412       .  A
C1193      C2512   1.412       .  A
C1193      C1194   1.408       .  A
C1193      H1200   1.083       .  S
C1194      S1196   1.807       .  S
S1195      H1198   1.406       .  S
S1196      H1197   1.407       .  S
C1201      C3368   1.464   1_455  S
C1201      C1202   1.402       .  A
C1201      C1206   1.413       .  A
C1202      C1203   1.395       .  A
C1202      H1211   1.084   1_455  S
C1203      C1204   1.409       .  A
C1203      S1207   1.805       .  S
C1204      C1205   1.403       .  A
C1205      C1206   1.401       .  A
C1205      H1212   1.083       .  S
C1206      S1208   1.808       .  S
S1207      H1210   1.404       .  S
S1208      H3849   1.401       .  S
H1209      S3848   1.401       .  S
C1213      C1214   1.402       .  A
C1213      C1218   1.411       .  A
C1214      C1215   1.400       .  A
C1214      H1223   1.085       .  S
C1215      C1216   1.413       .  A
C1215      S1219   1.804       .  S
C1216      C1217   1.402       .  A
C1217      C1218   1.398       .  A
C1217      H1224   1.084       .  S
C1218      S1220   1.804       .  S
S1219      H1222   1.404       .  S
S1220      H1221   1.407       .  S
C1225      C1226   1.412       .  A
C1225      C1230   1.406       .  A
C1226      C3207   1.420   1_556  A
C1226      H1235   1.083       .  S
C1227      C3206   1.420   1_455  A
C1227      C1228   1.418       .  A
C1227      S1231   1.799       .  S
C1228      C1229   1.405       .  A
C1229      C3210   1.387   1_455  A
C1229      H1236   1.084       .  S
C1230      C3209   1.387   1_556  A
C1230      S1232   1.800       .  S
S1231      H1234   1.402       .  S
S1232      H1233   1.406       .  S
C1237      C1238   1.404       .  A
C1237      C1242   1.419       .  A
C1238      C1239   1.382       .  A
C1238      H1247   1.083       .  S
C1239      C3880   1.415       .  A
C1239      S1243   1.798       .  S
C1240      C3879   1.415       .  A
C1240      C1241   1.408       .  A
C1241      C3882   1.405   1_455  A
C1241      H1248   1.084       .  S
C1242      C3881   1.405       .  A
C1242      S1244   1.799       .  S
S1243      H3886   1.397       .  S
S1244      H1245   1.408       .  S
H1246      S3883   1.397       .  S
C1249      C2071   1.434       .  S
C1249      C1250   1.399       .  A
C1249      C1254   1.411       .  A
C1250      C1251   1.394       .  A
C1250      H1259   1.083       .  S
C1251      C1252   1.405       .  A
C1251      S1255   1.804       .  S
C1252      C1253   1.397       .  A
C1253      C1254   1.382       .  A
C1253      H1260   1.085       .  S
C1254      S1256   1.809       .  S
S1255      H1258   1.406       .  S
S1256      H1257   1.403       .  S
C1261      C1262   1.406       .  A
C1261      C1266   1.428       .  A
C1262      C1263   1.397       .  A
C1262      H1271   1.083       .  S
C1263      C1264   1.411       .  A
C1263      S1267   1.805       .  S
C1264      C1265   1.393       .  A
C1265      C1266   1.398       .  A
C1265      H1272   1.083       .  S
C1266      S1268   1.812       .  S
S1267      H1270   1.407       .  S
S1268      H1269   1.407       .  S
C1273      C2189   1.463       .  S
C1273      C1274   1.409       .  A
C1273      C1278   1.408       .  A
C1274      C1275   1.386       .  A
C1274      H1283   1.082       .  S
C1275      C1276   1.398       .  A
C1275      S1279   1.801       .  S
C1276      C3326   1.445   1_455  S
C1276      C1277   1.402       .  A
C1277      C1278   1.393       .  A
C1277      H1284   1.080       .  S
C1278      S1280   1.802       .  S
S1279      H1282   1.405       .  S
S1280      H2601   1.407       .  S
H1281      S2600   1.407       .  S
C1285      C1286   1.402       .  A
C1285      C1290   1.403       .  A
C1286      C1287   1.391       .  A
C1286      H1295   1.085       .  S
C1287      C1288   1.418       .  A
C1287      S1291   1.803       .  S
C1288      C1289   1.414       .  A
C1289      C1290   1.391       .  A
C1289      H1296   1.083       .  S
C1290      S1292   1.804       .  S
S1291      H1294   1.406       .  S
S1292      H1293   1.407       .  S
C1297      C1298   1.411       .  A
C1297      C1302   1.422       .  A
C1298      H1307   1.083       .  S
C1299      C1300   1.421       .  A
C1299      S1303   1.802       .  S
C1300      C1301   1.393       .  A
C1301      H1308   1.081       .  S
C1302      S1304   1.805       .  S
S1303      H1306   1.404       .  S
S1304      H1305   1.399       .  S
C1309      C1310   1.406       .  A
C1309      C1314   1.410       .  A
C1310      C1311   1.401       .  A
C1310      H1319   1.084       .  S
C1311      C1312   1.410       .  A
C1311      S1315   1.805       .  S
C1312      C1313   1.404       .  A
C1313      C1314   1.401       .  A
C1313      H1320   1.084       .  S
C1314      S1316   1.799       .  S
S1315      H1318   1.403       .  S
S1316      H1317   1.406       .  S
O1321     Zr1333   2.465       .  S
O1321      C1323   1.292       .  A
O1322     Zr1359   2.403       .  S
O1322      C1323   1.282       .  A
C1323      C1972   1.471       .  S
O1324     Zr1336   2.372       .  S
O1324      C1326   1.274       .  A
O1325     Zr1360   2.522       .  S
O1325      C1326   1.304       .  A
C1326      C1957   1.498       .  S
O1327     Zr1336   2.369       .  S
O1327      C1329   1.275       .  A
O1328     Zr1359   2.397       .  S
O1328      C1329   1.279       .  A
C1329      C1912   1.432       .  S
O1330     Zr1333   2.405       .  S
O1330      C1332   1.283       .  A
O1331     Zr1360   2.421       .  S
O1331      C1332   1.288       .  A
C1332      C1945   1.458       .  S
Zr1333     O1334   2.434       .  S
Zr1333     O1335   2.437       .  S
Zr1333     O1339   2.344       .  S
Zr1333     O1340   2.386       .  S
Zr1333     O1363   2.367       .  S
Zr1333     O1365   2.367       .  S
O1334      H1377   0.990       .  S
O1335      H1376   0.990       .  S
O1335      H1380   0.990       .  S
Zr1336     O1337   2.437       .  S
Zr1336     O1338   2.433       .  S
Zr1336     O1340   2.350       .  S
Zr1336     O1339   2.351       .  S
Zr1336     O1364   2.350       .  S
Zr1336     O1366   2.370       .  S
O1337      H1378   0.990       .  S
O1337      H1381   0.990       .  S
O1338      H1371   0.990       .  S
O1339     Zr1359   2.368       .  S
O1340     Zr1360   2.399       .  S
O1340      H1367   0.966       .  S
O1341     Zr1353   2.414       .  S
O1341      C1343   1.283       .  A
O1342     Zr1360   2.435       .  S
O1342      C1343   1.291       .  A
C1343      C1924   1.464       .  S
O1344     Zr1356   2.415       .  S
O1344      C1346   1.276       .  A
O1345     Zr1359   2.398       .  S
O1345      C1346   1.275       .  A
C1346      C4576   1.445       .  S
O1347     Zr1356   2.393       .  S
O1347      C1349   1.276       .  A
O1348     Zr1360   2.495       .  S
O1348      C1349   1.300       .  A
C1349      C1885   1.478       .  S
O1350     Zr1353   2.448       .  S
O1350      C1352   1.286       .  A
O1351     Zr1359   2.388       .  S
O1351      C1352   1.283       .  A
C1352      C1897   1.489       .  S
Zr1353     O1354   2.437       .  S
Zr1353     O1355   2.436       .  S
Zr1353     O1361   2.382       .  S
Zr1353     O1362   2.354       .  S
Zr1353     O1365   2.372       .  S
Zr1353     O1363   2.361       .  S
O1354      H1374   0.990       .  S
O1354      H1379   0.990       .  S
O1355      H1375   0.990       .  S
Zr1356     O1357   2.435       .  S
Zr1356     O1358   2.436       .  S
Zr1356     O1362   2.360       .  S
Zr1356     O1361   2.372       .  S
Zr1356     O1366   2.374       .  S
Zr1356     O1364   2.353       .  S
O1357      H4013   0.990       .  S
O1358      H1372   0.989       .  S
O1358      H1382   0.990       .  S
Zr1359     O1362   2.378       .  S
Zr1359     O1364   2.386       .  S
Zr1359     O1365   2.376       .  S
Zr1360     O1361   2.402       .  S
Zr1360     O1363   2.406       .  S
Zr1360     O1366   2.372       .  S
O1361      H1369   0.965       .  S
O1364      H1368   0.966       .  S
O1365      H1370   0.966       .  S
H1373      O3997   0.990       .  S
O1383     Zr1395   2.409       .  S
O1383      C1385   1.280       .  A
O1384     Zr1421   2.448       .  S
O1384      C1385   1.294       .  A
C1385      C1921   1.489       .  S
O1386     Zr1398   2.427       .  S
O1386      C1388   1.284       .  A
O1387     Zr1422   2.429       .  S
O1387      C1388   1.286       .  A
C1388      C4501   1.464       .  S
O1389     Zr1398   2.397       .  S
O1389      C1391   1.281       .  A
O1390     Zr1421   2.512       .  S
O1390      C1391   1.302       .  A
C1391      C1825   1.500       .  S
O1392     Zr1395   2.419       .  S
O1392      C1394   1.285       .  A
O1393     Zr1422   2.458       .  S
O1393      C1394   1.293       .  A
C1394      C1813   1.496       .  S
Zr1395     O1396   2.433       .  S
Zr1395     O1397   2.435       .  S
Zr1395     O1401   2.382       .  S
Zr1395     O1402   2.361       .  S
Zr1395     O1425   2.380       .  S
Zr1395     O1427   2.360       .  S
O1396      H1439   0.990       .  S
O1397      H1438   0.990       .  S
O1397      H1442   0.990       .  S
Zr1398     O1399   2.435       .  S
Zr1398     O1400   2.430       .  S
Zr1398     O1402   2.335       .  S
Zr1398     O1401   2.373       .  S
Zr1398     O1426   2.373       .  S
Zr1398     O1428   2.350       .  S
O1399      H1440   0.990       .  S
O1399      H4083   0.990       .  S
O1400      H1433   0.991       .  S
O1401     Zr1421   2.396       .  S
O1402     Zr1422   2.379       .  S
O1402      H1429   0.964       .  S
O1403     Zr1415   2.495       .  S
O1403      C1405   1.297       .  A
O1404     Zr1422   2.445       .  S
O1404      C1405   1.291       .  A
C1405      C1837   1.511       .  S
O1406     Zr1418   2.403       .  S
O1406      C1408   1.274       .  A
O1407     Zr1421   2.480       .  S
O1407      C1408   1.291       .  A
C1408      C1852   1.497       .  S
O1409     Zr1418   2.354       .  S
O1409      C1411   1.272       .  A
O1410     Zr1422   2.415       .  S
O1410      C1411   1.284       .  A
O1412     Zr1415   2.442       .  S
O1412      C1414   1.290       .  A
O1413     Zr1421   2.435       .  S
O1413      C1414   1.290       .  A
C1414      C1873   1.468       .  S
Zr1415     O1416   2.436       .  S
Zr1415     O1417   2.434       .  S
Zr1415     O1423   2.355       .  S
Zr1415     O1424   2.383       .  S
Zr1415     O1427   2.379       .  S
Zr1415     O1425   2.378       .  S
O1416      H1436   0.990       .  S
O1416      H1441   0.990       .  S
O1417      H1437   0.990       .  S
Zr1418     O1420   2.437       .  S
Zr1418     O1424   2.338       .  S
Zr1418     O1423   2.361       .  S
Zr1418     O1428   2.364       .  S
Zr1418     O1426   2.346       .  S
O1420      H1434   0.990       .  S
O1420      H1444   0.990       .  S
Zr1421     O1424   2.402       .  S
Zr1421     O1426   2.381       .  S
Zr1421     O1427   2.418       .  S
Zr1422     O1423   2.398       .  S
Zr1422     O1425   2.386       .  S
Zr1422     O1428   2.379       .  S
O1423      H1431   0.965       .  S
O1426      H1430   0.960       .  S
O1427      H1432   0.965       .  S
H1443      O4039   0.990       .  S
O1445     Zr1457   2.411       .  S
O1445      C1447   1.281       .  A
O1446     Zr1483   2.433       .  S
O1446      C1447   1.287       .  A
C1447      C4444   1.458   1_455  S
O1448     Zr1460   2.394       .  S
O1448      C1450   1.280       .  A
O1449     Zr1484   2.495       .  S
O1449      C1450   1.301       .  A
C1450      C1780   1.486       .  S
O1451     Zr1460   2.446       .  S
O1451      C1453   1.288       .  A
O1452     Zr1483   2.402       .  S
O1452      C1453   1.282       .  A
C1453      C1900   1.483       .  S
O1454     Zr1457   2.382       .  S
O1454      C1456   1.277       .  A
O1455     Zr1484   2.504       .  S
O1455      C1456   1.301       .  A
C1456      C1888   1.489       .  S
Zr1457     O4098   2.433   1_455  S
Zr1457     O1459   2.435       .  S
Zr1457     O1463   2.356       .  S
Zr1457     O1464   2.368       .  S
Zr1457     O1487   2.371       .  S
Zr1457     O1489   2.354       .  S
O1458     Zr4097   2.433       .  S
O1458      H1501   0.990       .  S
O1459      H1500   0.990       .  S
O1459      H1504   0.990   1_455  S
Zr1460     O1461   2.438       .  S
Zr1460     O1462   2.436       .  S
Zr1460     O1464   2.377       .  S
Zr1460     O1463   2.350       .  S
Zr1460     O1488   2.369       .  S
Zr1460     O1490   2.371       .  S
O1461      H1502   0.990       .  S
O1461      H1505   0.990       .  S
O1462      H1495   0.990       .  S
O1463     Zr1483   2.372       .  S
O1464     Zr1484   2.405       .  S
O1464      H1491   0.966       .  S
O1465     Zr1477   2.385       .  S
O1465      C1467   1.278       .  A
O1466     Zr1484   2.526       .  S
O1466      C1467   1.306       .  A
C1467      C1741   1.504       .  S
O1468     Zr1480   2.464       .  S
O1468      C1470   1.293       .  A
O1469     Zr1483   2.430       .  S
O1469      C1470   1.287       .  A
C1470      C1753   1.494       .  S
O1471     Zr1480   2.440       .  S
O1471      C1473   1.290       .  A
O1472     Zr1484   2.439       .  S
O1472      C1473   1.290       .  A
C1473      C1789   1.480       .  S
O1474     Zr1477   2.444       .  S
O1474      C1476   1.289       .  A
O1475     Zr1483   2.383       .  S
O1475      C1476   1.278       .  A
Zr1477     O1478   2.436   1_565  S
Zr1477     O1479   2.434       .  S
Zr1477     O1485   2.374       .  S
Zr1477     O1486   2.348       .  S
Zr1477     O1489   2.341       .  S
Zr1477     O1487   2.385       .  S
O1478      H1498   0.990   1_545  S
O1479      H1499   0.990       .  S
Zr1480     O1481   2.433       .  S
Zr1480     O1482   2.434       .  S
Zr1480     O1486   2.359       .  S
Zr1480     O1485   2.384       .  S
Zr1480     O1490   2.361       .  S
Zr1480     O1488   2.375       .  S
O1481      H1497   0.990       .  S
O1482      H1496   0.990       .  S
O1482      H1506   0.990       .  S
Zr1483     O1486   2.373       .  S
Zr1483     O1488   2.378       .  S
Zr1483     O1489   2.371       .  S
Zr1484     O1485   2.411       .  S
Zr1484     O1487   2.389       .  S
Zr1484     O1490   2.404       .  S
O1485      H1493   0.966       .  S
O1488      H1492   0.966       .  S
O1489      H1494   0.963       .  S
O1507     Zr1519   2.411       .  S
O1507      C1509   1.282       .  A
O1508     Zr1545   2.486       .  S
O1508      C1509   1.298       .  A
C1509      C1720   1.487       .  S
O1510     Zr1522   2.418       .  S
O1510      C1512   1.284       .  A
O1511     Zr1546   2.463       .  S
O1511      C1512   1.294       .  A
C1512      C1729   1.498       .  S
O1513     Zr1522   2.415       .  S
O1513      C1515   1.284       .  A
O1514     Zr1545   2.412       .  S
O1514      C1515   1.284       .  A
C1515      C1948   1.482       .  S
O1516     Zr1519   2.433       .  S
O1516      C1518   1.286       .  A
O1517     Zr1546   2.425       .  S
O1517      C1518   1.287       .  A
C1518      C1864   1.466       .  S
Zr1519     O1520   2.434       .  S
Zr1519     O1521   2.436       .  S
Zr1519     O1525   2.370       .  S
Zr1519     O1526   2.347       .  S
Zr1519     O1549   2.358       .  S
Zr1519     O1551   2.373       .  S
O1520      H1563   0.990       .  S
O1521      H1562   0.990       .  S
O1521      H1566   0.990       .  S
Zr1522     O1523   2.437       .  S
Zr1522     O1524   2.435       .  S
Zr1522     O1526   2.363       .  S
Zr1522     O1525   2.376       .  S
Zr1522     O1550   2.359       .  S
Zr1522     O1552   2.379       .  S
O1523      H1564   0.990       .  S
O1523      H1567   0.990       .  S
O1524      H1557   0.990       .  S
O1525     Zr1545   2.383       .  S
O1526     Zr1546   2.385       .  S
O1526      H1553   0.965       .  S
O1527     Zr1539   2.402       .  S
O1527      C1529   1.275       .  A
O1528     Zr1546   2.424       .  S
O1528      C1529   1.283       .  A
O1530     Zr1542   2.451       .  S
O1530      C1532   1.291       .  A
O1531     Zr1545   2.425       .  S
O1531      C1532   1.288       .  A
C1532      C1876   1.469       .  S
O1533     Zr1542   2.481       .  S
O1533      C1535   1.296       .  A
O1534     Zr1546   2.459       .  S
O1534      C1535   1.294       .  A
C1535      C1744   1.499       .  S
O1536     Zr1539   2.419       .  S
O1536      C1538   1.274       .  A
O1537     Zr1545   2.448       .  S
O1537      C1538   1.285       .  A
C1538      C1756   1.476       .  S
Zr1539     O1541   2.436       .  S
Zr1539     O1547   2.376       .  S
Zr1539     O1548   2.354       .  S
Zr1539     O1551   2.371       .  S
Zr1539     O1549   2.368       .  S
O1540      H1560   0.990       .  S
O1540      H1565   0.989       .  S
O1541      H1561   0.990       .  S
Zr1542     O1543   2.433       .  S
Zr1542     O1544   2.434       .  S
Zr1542     O1548   2.378       .  S
Zr1542     O1547   2.358       .  S
Zr1542     O1552   2.379       .  S
Zr1542     O1550   2.371       .  S
O1543      H1559   0.990       .  S
O1544      H1558   0.990       .  S
O1544      H1568   0.990       .  S
Zr1545     O1548   2.396       .  S
Zr1545     O1550   2.404       .  S
Zr1545     O1551   2.387       .  S
Zr1546     O1547   2.400       .  S
Zr1546     O1549   2.388       .  S
Zr1546     O1552   2.388       .  S
O1547      H1555   0.964       .  S
O1550      H1554   0.965       .  S
O1551      H1556   0.966       .  S
O1569     Zr1581   2.488       .  S
O1569      C1571   1.295       .  A
O1570     Zr1607   2.424       .  S
O1570      C1571   1.292       .  A
C1571      C1828   1.516       .  S
O1572     Zr1584   2.392       .  S
O1572      C1574   1.272       .  A
O1573     Zr1608   2.473       .  S
O1573      C1574   1.292       .  A
C1574      C1816   1.469       .  S
O1575     Zr1584   2.426       .  S
O1575      C1577   1.280       .  A
O1576     Zr1607   2.440       .  S
O1576      C1577   1.284       .  A
C1577      C4336   1.482   1_455  S
O1578     Zr1581   2.491       .  S
O1578      C1580   1.299       .  A
O1579     Zr1608   2.409       .  S
O1579      C1580   1.284       .  A
C1580      C1777   1.486       .  S
Zr1581     O1582   2.433       .  S
Zr1581     O1583   2.434       .  S
Zr1581     O1587   2.369       .  S
Zr1581     O1588   2.376       .  S
Zr1581     O1611   2.372       .  S
Zr1581     O1613   2.395       .  S
O1582      H1625   0.990       .  S
O1583      H1624   0.990       .  S
O1583      H1628   0.990       .  S
Zr1584     O4225   2.440   1_455  S
Zr1584     O1586   2.442       .  S
Zr1584     O1588   2.387       .  S
Zr1584     O1587   2.354       .  S
Zr1584     O1612   2.353       .  S
Zr1584     O1614   2.368       .  S
O1585     Zr4224   2.440       .  S
O1585      H1626   0.990       .  S
O1585      H1629   0.990       .  S
O1586      H1619   0.989       .  S
O1587     Zr1607   2.389       .  S
O1588     Zr1608   2.407       .  S
O1588      H1615   0.965       .  S
O1589     Zr1601   2.472       .  S
O1589      C1591   1.294       .  A
O1590     Zr1608   2.442       .  S
O1590      C1591   1.291       .  A
C1591      C1705   1.509       .  S
O1592     Zr1604   2.370       .  S
O1592      C1594   1.275       .  A
O1593     Zr1607   2.450       .  S
O1593      C1594   1.291       .  A
C1594      C1768   1.463       .  S
O1595     Zr1604   2.371       .  S
O1595      C1597   1.274       .  A
O1596     Zr1608   2.466       .  S
O1596      C1597   1.292       .  A
C1597      C1732   1.472       .  S
O1598     Zr1601   2.498       .  S
O1598      C1600   1.298       .  A
O1599     Zr1607   2.450       .  S
O1599      C1600   1.293       .  A
C1600      C1717   1.516       .  S
Zr1601     O1602   2.436       .  S
Zr1601     O1603   2.434       .  S
Zr1601     O1609   2.390       .  S
Zr1601     O1610   2.363       .  S
Zr1601     O1613   2.386       .  S
Zr1601     O1611   2.380       .  S
O1602      H1622   0.990       .  S
O1602      H1627   0.990       .  S
O1603      H1623   0.990       .  S
Zr1604     O1605   2.434       .  S
Zr1604     O1606   2.437       .  S
Zr1604     O1610   2.351       .  S
Zr1604     O1609   2.355       .  S
Zr1604     O1614   2.359       .  S
Zr1604     O1612   2.356       .  S
O1605      H1621   0.990       .  S
O1606      H1620   0.990       .  S
O1606      H1630   0.990       .  S
Zr1607     O1610   2.377       .  S
Zr1607     O1612   2.379       .  S
Zr1607     O1613   2.406       .  S
Zr1608     O1609   2.398       .  S
Zr1608     O1611   2.407       .  S
Zr1608     O1614   2.372       .  S
O1609      H1617   0.966       .  S
O1612      H1616   0.964       .  S
O1613      H1618   0.966       .  S
O1631     Zr1643   2.461       .  S
O1631      C1633   1.292       .  A
O1632     Zr1669   2.443       .  S
O1632      C1633   1.290       .  A
C1633      C1849   1.488       .  S
O1634     Zr1646   2.431       .  S
O1634      C1636   1.281       .  A
O1635     Zr1670   2.481       .  S
O1635      C1636   1.293       .  A
C1636      C1708   1.500       .  S
O1637     Zr1646   2.441       .  S
O1637      C1639   1.287       .  A
O1638     Zr1669   2.439       .  S
O1638      C1639   1.289       .  A
C1639      C1969   1.479       .  S
O1640     Zr1643   2.435       .  S
O1640      C1642   1.289       .  A
O1641     Zr1670   2.446       .  S
O1641      C1642   1.292       .  A
C1642      C1792   1.477       .  S
Zr1643     O1644   2.434       .  S
Zr1643     O1645   2.435       .  S
Zr1643     O1649   2.378       .  S
Zr1643     O1650   2.373       .  S
Zr1643     O1673   2.379       .  S
Zr1643     O1675   2.363       .  S
O1644      H1687   0.990       .  S
O1645      H1686   0.990       .  S
O1645      H1690   0.990       .  S
Zr1646     O1647   2.440       .  S
Zr1646     O1648   2.435       .  S
Zr1646     O1650   2.367       .  S
Zr1646     O1649   2.371       .  S
Zr1646     O1674   2.372       .  S
Zr1646     O1676   2.376       .  S
O1647      H1688   0.989       .  S
O1647      H1691   0.990       .  S
O1648      H1681   0.990       .  S
O1649     Zr1669   2.382       .  S
O1650     Zr1670   2.417       .  S
O1650      H1677   0.965       .  S
O1651     Zr1663   2.391       .  S
O1651      C1653   1.277       .  A
O1652     Zr1670   2.518       .  S
O1652      C1653   1.305       .  A
C1653      C1840   1.491       .  S
O1654     Zr1666   2.436       .  S
O1654      C1656   1.286       .  A
O1655     Zr1669   2.404       .  S
O1655      C1656   1.282       .  A
C1656      C1801   1.454       .  S
O1657     Zr1666   2.436       .  S
O1657      C1659   1.277       .  A
O1658     Zr1670   2.480       .  S
O1658      C1659   1.293       .  A
C1659      C1960   1.488       .  S
O1660     Zr1663   2.429       .  S
O1660      C1662   1.285       .  A
O1661     Zr1669   2.429       .  S
O1661      C1662   1.287       .  A
Zr1663     O1664   2.438       .  S
Zr1663     O1665   2.434   1_565  S
Zr1663     O1671   2.379       .  S
Zr1663     O1672   2.355       .  S
Zr1663     O1675   2.353       .  S
Zr1663     O1673   2.372       .  S
O1664      H1684   0.990       .  S
O1664      H1689   0.990       .  S
O1665      H1685   0.990   1_545  S
Zr1666     O1667   2.434       .  S
Zr1666     O1668   2.438       .  S
Zr1666     O1672   2.361       .  S
Zr1666     O1671   2.376       .  S
Zr1666     O1676   2.367       .  S
Zr1666     O1674   2.367       .  S
O1667      H1683   0.990       .  S
O1668      H1682   0.990       .  S
O1668      H1692   0.990       .  S
Zr1669     O1672   2.380       .  S
Zr1669     O1674   2.395       .  S
Zr1669     O1675   2.382       .  S
Zr1670     O1671   2.403       .  S
Zr1670     O1673   2.401       .  S
Zr1670     O1676   2.408       .  S
O1671      H1679   0.966       .  S
O1674      H1678   0.965       .  S
O1675      H1680   0.966       .  S
C1693      C1694   1.409       .  A
C1693      C1698   1.418       .  A
C1694      C1695   1.404       .  A
C1694      H1703   1.083       .  S
C1695      C1696   1.411       .  A
C1695      S1699   1.790       .  S
C1696      C4217   1.482       .  S
C1696      C1697   1.399       .  A
C1697      C1698   1.390       .  A
C1697      H1704   1.081       .  S
C1698      S1700   1.803       .  S
S1699      H4342   1.400       .  S
H1702      S4339   1.400       .  S
C1705      C1706   1.416       .  A
C1705      C1710   1.418       .  A
C1706      C1707   1.416       .  A
C1706      H1715   1.083       .  S
C1707      C1708   1.415       .  A
C1707      S1711   1.800       .  S
C1708      C1709   1.405       .  A
C1709      C1710   1.396       .  A
C1709      H1716   1.081       .  S
C1710      S1712   1.803       .  S
S1711      H1714   1.405       .  S
S1712      H1713   1.408       .  S
C1717      C1718   1.414       .  A
C1717      C1722   1.418       .  A
C1718      C1719   1.423       .  A
C1718      H1727   1.083       .  S
C1719      C1720   1.419       .  A
C1719      S1723   1.801       .  S
C1720      C1721   1.393       .  A
C1721      C1722   1.391       .  A
C1721      H1728   1.086       .  S
C1722      S1724   1.776       .  S
S1723      H1726   1.404       .  S
S1724      H1725   1.404       .  S
C1729      C2390   1.419       .  A
C1729      C2394   1.416       .  A
C1730      C2389   1.419   1_554  A
C1730      C1731   1.404       .  A
C1730      H2399   1.083   1_554  S
C1731      C1732   1.405       .  A
C1731      S1735   1.802       .  S
C1732      C1733   1.406       .  A
C1733      C1734   1.395       .  A
C1733      H1740   1.085       .  S
C1734      C2389   1.416   1_554  A
C1734      S2396   1.800       .  S
S1735      H1738   1.404       .  S
S1736      C2394   1.800       .  S
S1736      H1737   1.395       .  S
H1739      C2390   1.083       .  S
C1741      C1742   1.414       .  A
C1741      C2406   1.414   1_554  A
C1743      C2404   1.412   1_554  A
C1743      S1747   1.805       .  S
C1744      C2403   1.412       .  A
C1745      C1746   1.417       .  A
C1745      H1752   1.084       .  S
C1746      C2401   1.414       .  A
C1746      S1748   1.798       .  S
S1747      H1750   1.401   1_554  S
S1748      H2409   1.406       .  S
H1749      S2408   1.406       .  S
C1753      C1754   1.408       .  A
C1754      C1755   1.407   1_565  A
C1754      H1763   1.084       .  S
C1755      S1759   1.804       .  S
C1756      C1757   1.398       .  A
C1757      C1758   1.397       .  A
C1757      H1764   1.085       .  S
C1758      S1760   1.793       .  S
S1759      H1762   1.406       .  S
S1760      H1761   1.407       .  S
C1765      C1766   1.407       .  A
C1765      C1770   1.405       .  A
C1766      C1767   1.399       .  A
C1767      C1768   1.408       .  A
C1767      S1771   1.801       .  S
C1768      C1769   1.406       .  A
C1769      C1770   1.384       .  A
C1769      H1776   1.085       .  S
C1770      S1772   1.806       .  S
S1771      H1774   1.406       .  S
S1772      H1773   1.407       .  S
C1777      C1778   1.410       .  A
C1777      C1782   1.409       .  A
C1778      C1779   1.411       .  A
C1778      H1787   1.083       .  S
C1779      C1780   1.413       .  A
C1779      S1783   1.801       .  S
C1780      C1781   1.409       .  A
C1781      C1782   1.397       .  A
C1781      H1788   1.083       .  S
C1782      S1784   1.805       .  S
S1783      H1786   1.405       .  S
S1784      H1785   1.407       .  S
C1789      C1790   1.406       .  A
C1789      C1794   1.411       .  A
C1790      C1791   1.409       .  A
C1790      H1799   1.084       .  S
C1791      C1792   1.415       .  A
C1791      S1795   1.802       .  S
C1792      C1793   1.402       .  A
C1793      C1794   1.394       .  A
C1793      H1800   1.084       .  S
C1794      S1796   1.808       .  S
S1795      H1798   1.400       .  S
S1796      H1797   1.407       .  S
C1801      C1802   1.398       .  A
C1801      C1806   1.407       .  A
C1802      C1803   1.393       .  A
C1802      H1811   1.085       .  S
C1803      C1804   1.413       .  A
C1803      S4447   1.805       .  S
C1804      C4087   1.458       .  S
C1804      C1805   1.403       .  A
C1805      C1806   1.396       .  A
C1805      H1812   1.083       .  S
C1806      S1808   1.802       .  S
S1807      C4443   1.805   1_455  S
S1807      H1810   1.397       .  S
S1808      H1809   1.405       .  S
C1813      C2474   1.419       .  A
C1813      C2478   1.415       .  A
C1814      C2473   1.419   1_554  A
C1814      C4455   1.403       .  A
C1814      H2483   1.083   1_554  S
C1815      C4454   1.403   1_455  A
C1815      C1816   1.405       .  A
C1815      S1819   1.806       .  S
C1816      C1817   1.405       .  A
C1817      C4458   1.396   1_455  A
C1817      H1824   1.082       .  S
C1818      C2473   1.415   1_554  A
C1818      C4457   1.396       .  A
C1818      S2480   1.801       .  S
S1819      H1822   1.403       .  S
S1820      C2478   1.801       .  S
S1820      H1821   1.406       .  S
H1823      C2474   1.083       .  S
C1825      C1826   1.409       .  A
C1825      C1830   1.416       .  A
C1826      C1827   1.425       .  A
C1826      H1835   1.083       .  S
C1827      C4468   1.429       .  A
C1827      S1831   1.796       .  S
C1828      C4467   1.429   1_455  A
C1828      C1829   1.403       .  A
C1829      C4470   1.386   1_455  A
C1829      H1836   1.082       .  S
C1830      C4469   1.386       .  A
C1830      S1832   1.802       .  S
S1831      H4474   1.408       .  S
S1832      H1833   1.398       .  S
H1834      S4471   1.408   1_655  S
C1837      C2498   1.408       .  A
C1838      C2497   1.408       .  A
C1838      H1847   1.084       .  S
C1839      C1840   1.422       .  A
C1840      C1841   1.404   1_554  A
C1841      C2502   1.406       .  A
C1841      H1848   1.085       .  S
C1842      C2501   1.406       .  A
C1842      S1844   1.797       .  S
S1844      H1845   1.408       .  S
C1849      C1854   1.409       .  A
C1850      C1851   1.407       .  A
C1850      H1859   1.084       .  S
C1851      C1852   1.417       .  A
C1851      S1855   1.798       .  S
C1853      C1854   1.408   1_545  A
C1853      H1860   1.083       .  S
C1854      S1856   1.807       .  S
S1855      H1858   1.406       .  S
S1856      H1857   1.407       .  S
C1861      C4028   1.464   1_455  S
C1861      C1862   1.402       .  A
C1861      C1866   1.413       .  A
C1862      C1863   1.395       .  A
C1862      H1871   1.084   1_455  S
C1863      C1864   1.409       .  A
C1863      S1867   1.805       .  S
C1864      C1865   1.403       .  A
C1865      C1866   1.401       .  A
C1865      H1872   1.083       .  S
C1866      S1868   1.808       .  S
S1867      H1870   1.404       .  S
S1868      H4509   1.401       .  S
H1869      S4508   1.401       .  S
C1873      C1874   1.402       .  A
C1873      C1878   1.411       .  A
C1874      C1875   1.400       .  A
C1874      H1883   1.085       .  S
C1875      C1876   1.413       .  A
C1875      S1879   1.804       .  S
C1876      C1877   1.402       .  A
C1877      C1878   1.398       .  A
C1877      H1884   1.084       .  S
C1878      S1880   1.804       .  S
S1879      H1882   1.404       .  S
S1880      H1881   1.407       .  S
C1885      C1886   1.412       .  A
C1885      C1890   1.406       .  A
C1886      C5187   1.420       .  A
C1886      H1895   1.083       .  S
C1887      C5186   1.420   1_454  A
C1887      C1888   1.418       .  A
C1887      S1891   1.799       .  S
C1888      C1889   1.405       .  A
C1889      C5190   1.387   1_454  A
C1889      H1896   1.084       .  S
C1890      C5189   1.387       .  A
C1890      S1892   1.800       .  S
S1891      H1894   1.402       .  S
S1892      H1893   1.406       .  S
C1897      C1898   1.404       .  A
C1897      C1902   1.419       .  A
C1898      C1899   1.382       .  A
C1898      H1907   1.083       .  S
C1899      C4540   1.415       .  A
C1899      S1903   1.798       .  S
C1900      C4539   1.415       .  A
C1900      C1901   1.408       .  A
C1901      C4542   1.405   1_455  A
C1901      H1908   1.084       .  S
C1902      C4541   1.405       .  A
C1902      S1904   1.799       .  S
S1903      H4546   1.397       .  S
S1904      H1905   1.408       .  S
H1906      S4543   1.397       .  S
C1909      C1910   1.399       .  A
C1909      C1914   1.411       .  A
C1910      C1911   1.394       .  A
C1910      H1919   1.083       .  S
C1911      C1912   1.405       .  A
C1911      S1915   1.804       .  S
C1912      C1913   1.397       .  A
C1913      C1914   1.382       .  A
C1913      H1920   1.086       .  S
C1914      S1916   1.809       .  S
S1915      H1918   1.406       .  S
S1916      H1917   1.403       .  S
C1921      C1922   1.406       .  A
C1921      C1926   1.428       .  A
C1922      C1923   1.397       .  A
C1922      H1931   1.083       .  S
C1923      C1924   1.411       .  A
C1923      S1927   1.805       .  S
C1924      C1925   1.393       .  A
C1925      C1926   1.398       .  A
C1925      H1932   1.083       .  S
C1926      S1928   1.812       .  S
S1927      H1930   1.407       .  S
S1928      H1929   1.407       .  S
C1933      C1934   1.409       .  A
C1933      C1938   1.408       .  A
C1934      C1935   1.386       .  A
C1934      H1943   1.082       .  S
C1935      C1936   1.398       .  A
C1935      S1939   1.801       .  S
C1936      C3986   1.445   1_455  S
C1936      C1937   1.402       .  A
C1937      C1938   1.393       .  A
C1937      H1944   1.080       .  S
C1938      S1940   1.802       .  S
S1939      H1942   1.405       .  S
C1945      C1946   1.402       .  A
C1945      C1950   1.403       .  A
C1946      C1947   1.391       .  A
C1946      H1955   1.085       .  S
C1947      C1948   1.418       .  A
C1947      S1951   1.803       .  S
C1948      C1949   1.414       .  A
C1949      C1950   1.391       .  A
C1949      H1956   1.083       .  S
C1950      S1952   1.804       .  S
S1951      H1954   1.406       .  S
S1952      H1953   1.407       .  S
C1957      C1958   1.411       .  A
C1957      C1962   1.422       .  A
C1958      C2619   1.422       .  A
C1958      H1967   1.083       .  S
C1959      C2618   1.422   1_554  A
C1959      C1960   1.421       .  A
C1959      S1963   1.802       .  S
C1960      C1961   1.393       .  A
C1961      C2622   1.392   1_554  A
C1961      H1968   1.081       .  S
C1962      C2621   1.392       .  A
C1962      S1964   1.805       .  S
S1963      H1966   1.404       .  S
S1964      H1965   1.399       .  S
C1969      C1970   1.406       .  A
C1969      C1974   1.410       .  A
C1970      C1971   1.401       .  A
C1970      H1979   1.084       .  S
C1971      C1972   1.410       .  A
C1971      S1975   1.805       .  S
C1972      C1973   1.404       .  A
C1973      C1974   1.401       .  A
C1973      H1980   1.084       .  S
C1974      S1976   1.799       .  S
S1975      H1978   1.403       .  S
S1976      H1977   1.406       .  S
O1981     Zr1993   2.465       .  S
O1981      C1983   1.292       .  A
O1982     Zr2019   2.403       .  S
O1982      C1983   1.282       .  A
C1983      C2632   1.471       .  S
O1984     Zr1996   2.372       .  S
O1984      C1986   1.274       .  A
O1985     Zr2020   2.522       .  S
O1985      C1986   1.304       .  A
C1986      C2617   1.498       .  S
O1987     Zr1996   2.369       .  S
O1987      C1989   1.275       .  A
O1988     Zr2019   2.397       .  S
O1988      C1989   1.279       .  A
C1989      C2572   1.432       .  S
O1990     Zr1993   2.405       .  S
O1990      C1992   1.283       .  A
O1991     Zr2020   2.421       .  S
O1991      C1992   1.288       .  A
C1992      C2605   1.458       .  S
Zr1993     O1994   2.434       .  S
Zr1993     O1995   2.437       .  S
Zr1993     O1999   2.344       .  S
Zr1993     O2000   2.386       .  S
Zr1993     O2023   2.367       .  S
Zr1993     O2025   2.367       .  S
O1994      H2037   0.990       .  S
O1995      H2036   0.990       .  S
O1995      H2040   0.990       .  S
Zr1996     O1997   2.437       .  S
Zr1996     O1998   2.433       .  S
Zr1996     O2000   2.350       .  S
Zr1996     O1999   2.351       .  S
Zr1996     O2024   2.350       .  S
Zr1996     O2026   2.370       .  S
O1997      H2038   0.990       .  S
O1997      H2041   0.990       .  S
O1998      H2031   0.990       .  S
O1999     Zr2019   2.368       .  S
O2000     Zr2020   2.399       .  S
O2000      H2027   0.966       .  S
O2001     Zr2013   2.414       .  S
O2001      C2003   1.283       .  A
O2002     Zr2020   2.435       .  S
O2002      C2003   1.291       .  A
C2003      C2584   1.464       .  S
O2004     Zr2016   2.415       .  S
O2004      C2006   1.276       .  A
O2005     Zr2019   2.398       .  S
O2005      C2006   1.275       .  A
C2006      C5236   1.445       .  S
O2007     Zr2016   2.393       .  S
O2007      C2009   1.276       .  A
O2008     Zr2020   2.495       .  S
O2008      C2009   1.300       .  A
C2009      C2545   1.478       .  S
O2010     Zr2013   2.448       .  S
O2010      C2012   1.286       .  A
O2011     Zr2019   2.388       .  S
O2011      C2012   1.283       .  A
C2012      C2557   1.489       .  S
Zr2013     O2014   2.437       .  S
Zr2013     O2015   2.436       .  S
Zr2013     O2021   2.382       .  S
Zr2013     O2022   2.354       .  S
Zr2013     O2025   2.372       .  S
Zr2013     O2023   2.361       .  S
O2014      H2034   0.990       .  S
O2014      H2039   0.990       .  S
O2015      H2035   0.990       .  S
Zr2016     O2017   2.435       .  S
Zr2016     O2018   2.436       .  S
Zr2016     O2022   2.360       .  S
Zr2016     O2021   2.372       .  S
Zr2016     O2026   2.374       .  S
Zr2016     O2024   2.353       .  S
O2017      H4673   0.990       .  S
O2018      H2032   0.989       .  S
O2018      H2042   0.990       .  S
Zr2019     O2022   2.378       .  S
Zr2019     O2024   2.386       .  S
Zr2019     O2025   2.376       .  S
Zr2020     O2021   2.402       .  S
Zr2020     O2023   2.406       .  S
Zr2020     O2026   2.372       .  S
O2021      H2029   0.965       .  S
O2024      H2028   0.966       .  S
O2025      H2030   0.966       .  S
H2033      O4657   0.990       .  S
O2043     Zr2055   2.409       .  S
O2043      C2045   1.280       .  A
O2044     Zr2081   2.448       .  S
O2044      C2045   1.294       .  A
C2045      C2581   1.489       .  S
O2046     Zr2058   2.427       .  S
O2046      C2048   1.284       .  A
O2047     Zr2082   2.429       .  S
O2047      C2048   1.286       .  A
C2048      C5161   1.464       .  S
O2049     Zr2058   2.397       .  S
O2049      C2051   1.281       .  A
O2050     Zr2081   2.512       .  S
O2050      C2051   1.302       .  A
C2051      C2485   1.500       .  S
O2052     Zr2055   2.419       .  S
O2052      C2054   1.285       .  A
O2053     Zr2082   2.458       .  S
O2053      C2054   1.293       .  A
C2054      C2473   1.496       .  S
Zr2055     O2056   2.433       .  S
Zr2055     O2057   2.435       .  S
Zr2055     O2061   2.382       .  S
Zr2055     O2062   2.361       .  S
Zr2055     O2085   2.380       .  S
Zr2055     O2087   2.360       .  S
O2056      H2099   0.990       .  S
O2057      H2098   0.990       .  S
O2057      H2102   0.990       .  S
Zr2058     O2059   2.435       .  S
Zr2058     O2060   2.430       .  S
Zr2058     O2062   2.335       .  S
Zr2058     O2061   2.373       .  S
Zr2058     O2086   2.373       .  S
Zr2058     O2088   2.350       .  S
O2059      H2100   0.990       .  S
O2059      H4743   0.990       .  S
O2060      H2093   0.991       .  S
O2061     Zr2081   2.396       .  S
O2062     Zr2082   2.379       .  S
O2062      H2089   0.964       .  S
O2063     Zr2075   2.495       .  S
O2063      C2065   1.297       .  A
O2064     Zr2082   2.445       .  S
O2064      C2065   1.291       .  A
C2065      C2497   1.511       .  S
O2066     Zr2078   2.403       .  S
O2066      C2068   1.274       .  A
O2067     Zr2081   2.480       .  S
O2067      C2068   1.291       .  A
C2068      C2512   1.497       .  S
O2069     Zr2078   2.354       .  S
O2069      C2071   1.272       .  A
O2070     Zr2082   2.415       .  S
O2070      C2071   1.284       .  A
O2072     Zr2075   2.442       .  S
O2072      C2074   1.290       .  A
O2073     Zr2081   2.435       .  S
O2073      C2074   1.290       .  A
C2074      C2533   1.468       .  S
Zr2075     O2076   2.436       .  S
Zr2075     O2077   2.434       .  S
Zr2075     O2083   2.355       .  S
Zr2075     O2084   2.383       .  S
Zr2075     O2087   2.379       .  S
Zr2075     O2085   2.378       .  S
O2076      H2096   0.990       .  S
O2076      H2101   0.990       .  S
O2077      H2097   0.990       .  S
Zr2078     O2080   2.437       .  S
Zr2078     O2084   2.338       .  S
Zr2078     O2083   2.361       .  S
Zr2078     O2088   2.364       .  S
Zr2078     O2086   2.346       .  S
O2080      H2094   0.990       .  S
O2080      H2104   0.990       .  S
Zr2081     O2084   2.402       .  S
Zr2081     O2086   2.381       .  S
Zr2081     O2087   2.418       .  S
Zr2082     O2083   2.398       .  S
Zr2082     O2085   2.386       .  S
Zr2082     O2088   2.379       .  S
O2083      H2091   0.965       .  S
O2086      H2090   0.960       .  S
O2087      H2092   0.965       .  S
H2103      O4699   0.990       .  S
O2105     Zr2117   2.411       .  S
O2105      C2107   1.281       .  A
O2106     Zr2143   2.433       .  S
O2106      C2107   1.287       .  A
C2107      C5104   1.458   1_455  S
O2108     Zr2120   2.394       .  S
O2108      C2110   1.280       .  A
O2109     Zr2144   2.495       .  S
O2109      C2110   1.301       .  A
C2110      C2440   1.486       .  S
O2111     Zr2120   2.446       .  S
O2111      C2113   1.288       .  A
O2112     Zr2143   2.402       .  S
O2112      C2113   1.282       .  A
C2113      C2560   1.483       .  S
O2114     Zr2117   2.382       .  S
O2114      C2116   1.277       .  A
O2115     Zr2144   2.504       .  S
O2115      C2116   1.301       .  A
C2116      C2548   1.489       .  S
Zr2117     O4758   2.433   1_455  S
Zr2117     O2119   2.435       .  S
Zr2117     O2123   2.356       .  S
Zr2117     O2124   2.368       .  S
Zr2117     O2147   2.371       .  S
Zr2117     O2149   2.354       .  S
O2118     Zr4757   2.433       .  S
O2118      H2161   0.990       .  S
O2119      H2160   0.990       .  S
O2119      H2164   0.990   1_455  S
Zr2120     O2121   2.438       .  S
Zr2120     O2122   2.436       .  S
Zr2120     O2124   2.377       .  S
Zr2120     O2123   2.350       .  S
Zr2120     O2148   2.369       .  S
Zr2120     O2150   2.371       .  S
O2121      H2162   0.990       .  S
O2121      H2165   0.990       .  S
O2122      H2155   0.990       .  S
O2123     Zr2143   2.372       .  S
O2124     Zr2144   2.405       .  S
O2124      H2151   0.966       .  S
O2125     Zr2137   2.385       .  S
O2125      C2127   1.278       .  A
O2126     Zr2144   2.526       .  S
O2126      C2127   1.306       .  A
C2127      C2401   1.504       .  S
O2128     Zr2140   2.464       .  S
O2128      C2130   1.293       .  A
O2129     Zr2143   2.430       .  S
O2129      C2130   1.287       .  A
C2130      C2413   1.494       .  S
O2131     Zr2140   2.440       .  S
O2131      C2133   1.290       .  A
O2132     Zr2144   2.439       .  S
O2132      C2133   1.290       .  A
C2133      C2449   1.480       .  S
O2134     Zr2137   2.444       .  S
O2134      C2136   1.289       .  A
O2135     Zr2143   2.383       .  S
O2135      C2136   1.278       .  A
Zr2137     O2138   2.436   1_565  S
Zr2137     O2139   2.434       .  S
Zr2137     O2145   2.374       .  S
Zr2137     O2146   2.348       .  S
Zr2137     O2149   2.341       .  S
Zr2137     O2147   2.385       .  S
O2138      H2158   0.990   1_545  S
O2139      H2159   0.990       .  S
Zr2140     O2141   2.433       .  S
Zr2140     O2142   2.434       .  S
Zr2140     O2146   2.359       .  S
Zr2140     O2145   2.384       .  S
Zr2140     O2150   2.361       .  S
Zr2140     O2148   2.375       .  S
O2141      H2157   0.990       .  S
O2142      H2156   0.990       .  S
O2142      H2166   0.990       .  S
Zr2143     O2146   2.373       .  S
Zr2143     O2148   2.378       .  S
Zr2143     O2149   2.371       .  S
Zr2144     O2145   2.411       .  S
Zr2144     O2147   2.389       .  S
Zr2144     O2150   2.404       .  S
O2145      H2153   0.966       .  S
O2148      H2152   0.966       .  S
O2149      H2154   0.963       .  S
O2167     Zr2179   2.411       .  S
O2167      C2169   1.282       .  A
O2168     Zr2205   2.486       .  S
O2168      C2169   1.298       .  A
C2169      C2380   1.487       .  S
O2170     Zr2182   2.418       .  S
O2170      C2172   1.284       .  A
O2171     Zr2206   2.463       .  S
O2171      C2172   1.294       .  A
C2172      C2389   1.498       .  S
O2173     Zr2182   2.415       .  S
O2173      C2175   1.284       .  A
O2174     Zr2205   2.412       .  S
O2174      C2175   1.284       .  A
C2175      C2608   1.482       .  S
O2176     Zr2179   2.433       .  S
O2176      C2178   1.286       .  A
O2177     Zr2206   2.425       .  S
O2177      C2178   1.287       .  A
C2178      C2524   1.466       .  S
Zr2179     O2180   2.434       .  S
Zr2179     O2181   2.436       .  S
Zr2179     O2185   2.370       .  S
Zr2179     O2186   2.347       .  S
Zr2179     O2209   2.358       .  S
Zr2179     O2211   2.373       .  S
O2180      H2223   0.990       .  S
O2181      H2222   0.990       .  S
O2181      H2226   0.990       .  S
Zr2182     O2183   2.437       .  S
Zr2182     O2184   2.435       .  S
Zr2182     O2186   2.363       .  S
Zr2182     O2185   2.376       .  S
Zr2182     O2210   2.359       .  S
Zr2182     O2212   2.379       .  S
O2183      H2224   0.990       .  S
O2183      H2227   0.990       .  S
O2184      H2217   0.990       .  S
O2185     Zr2205   2.383       .  S
O2186     Zr2206   2.385       .  S
O2186      H2213   0.965       .  S
O2187     Zr2199   2.402       .  S
O2187      C2189   1.275       .  A
O2188     Zr2206   2.424       .  S
O2188      C2189   1.283       .  A
O2190     Zr2202   2.451       .  S
O2190      C2192   1.291       .  A
O2191     Zr2205   2.425       .  S
O2191      C2192   1.288       .  A
C2192      C2536   1.469       .  S
O2193     Zr2202   2.481       .  S
O2193      C2195   1.296       .  A
O2194     Zr2206   2.459       .  S
O2194      C2195   1.294       .  A
C2195      C2404   1.499       .  S
O2196     Zr2199   2.419       .  S
O2196      C2198   1.274       .  A
O2197     Zr2205   2.448       .  S
O2197      C2198   1.285       .  A
C2198      C2416   1.476       .  S
Zr2199     O2201   2.436       .  S
Zr2199     O2207   2.376       .  S
Zr2199     O2208   2.354       .  S
Zr2199     O2211   2.371       .  S
Zr2199     O2209   2.368       .  S
O2200      H2220   0.990       .  S
O2200      H2225   0.989       .  S
O2201      H2221   0.990       .  S
Zr2202     O2203   2.433       .  S
Zr2202     O2204   2.434       .  S
Zr2202     O2208   2.378       .  S
Zr2202     O2207   2.358       .  S
Zr2202     O2212   2.379       .  S
Zr2202     O2210   2.371       .  S
O2203      H2219   0.990       .  S
O2204      H2218   0.990       .  S
O2204      H2228   0.990       .  S
Zr2205     O2208   2.396       .  S
Zr2205     O2210   2.404       .  S
Zr2205     O2211   2.387       .  S
Zr2206     O2207   2.400       .  S
Zr2206     O2209   2.388       .  S
Zr2206     O2212   2.388       .  S
O2207      H2215   0.964       .  S
O2210      H2214   0.965       .  S
O2211      H2216   0.966       .  S
O2229     Zr2241   2.488       .  S
O2229      C2231   1.295       .  A
O2230     Zr2267   2.424       .  S
O2230      C2231   1.292       .  A
C2231      C2488   1.516       .  S
O2232     Zr2244   2.392       .  S
O2232      C2234   1.272       .  A
O2233     Zr2268   2.473       .  S
O2233      C2234   1.292       .  A
C2234      C2476   1.469       .  S
O2235     Zr2244   2.426       .  S
O2235      C2237   1.280       .  A
O2236     Zr2267   2.440       .  S
O2236      C2237   1.284       .  A
C2237      C4996   1.482   1_455  S
O2238     Zr2241   2.491       .  S
O2238      C2240   1.299       .  A
O2239     Zr2268   2.409       .  S
O2239      C2240   1.284       .  A
C2240      C2437   1.486       .  S
Zr2241     O2242   2.433       .  S
Zr2241     O2243   2.434       .  S
Zr2241     O2247   2.369       .  S
Zr2241     O2248   2.376       .  S
Zr2241     O2271   2.372       .  S
Zr2241     O2273   2.395       .  S
O2242      H2285   0.990       .  S
O2243      H2284   0.990       .  S
O2243      H2288   0.990       .  S
Zr2244     O4885   2.440   1_455  S
Zr2244     O2246   2.442       .  S
Zr2244     O2248   2.387       .  S
Zr2244     O2247   2.354       .  S
Zr2244     O2272   2.353       .  S
Zr2244     O2274   2.368       .  S
O2245     Zr4884   2.440       .  S
O2245      H2286   0.990       .  S
O2245      H2289   0.990       .  S
O2246      H2279   0.989       .  S
O2247     Zr2267   2.389       .  S
O2248     Zr2268   2.407       .  S
O2248      H2275   0.965       .  S
O2249     Zr2261   2.472       .  S
O2249      C2251   1.294       .  A
O2250     Zr2268   2.442       .  S
O2250      C2251   1.291       .  A
C2251      C2365   1.509       .  S
O2252     Zr2264   2.370       .  S
O2252      C2254   1.275       .  A
O2253     Zr2267   2.450       .  S
O2253      C2254   1.291       .  A
C2254      C2428   1.463       .  S
O2255     Zr2264   2.371       .  S
O2255      C2257   1.274       .  A
O2256     Zr2268   2.466       .  S
O2256      C2257   1.292       .  A
C2257      C2392   1.472       .  S
O2258     Zr2261   2.498       .  S
O2258      C2260   1.298       .  A
O2259     Zr2267   2.450       .  S
O2259      C2260   1.293       .  A
C2260      C2377   1.516       .  S
Zr2261     O2262   2.436       .  S
Zr2261     O2263   2.434       .  S
Zr2261     O2269   2.390       .  S
Zr2261     O2270   2.363       .  S
Zr2261     O2273   2.386       .  S
Zr2261     O2271   2.380       .  S
O2262      H2282   0.990       .  S
O2262      H2287   0.990       .  S
O2263      H2283   0.990       .  S
Zr2264     O2265   2.434       .  S
Zr2264     O2266   2.437       .  S
Zr2264     O2270   2.351       .  S
Zr2264     O2269   2.355       .  S
Zr2264     O2274   2.359       .  S
Zr2264     O2272   2.356       .  S
O2265      H2281   0.990       .  S
O2266      H2280   0.990       .  S
O2266      H2290   0.990       .  S
Zr2267     O2270   2.377       .  S
Zr2267     O2272   2.379       .  S
Zr2267     O2273   2.406       .  S
Zr2268     O2269   2.398       .  S
Zr2268     O2271   2.407       .  S
Zr2268     O2274   2.372       .  S
O2269      H2277   0.966       .  S
O2272      H2276   0.964       .  S
O2273      H2278   0.966       .  S
O2291     Zr2303   2.461       .  S
O2291      C2293   1.292       .  A
O2292     Zr2329   2.443       .  S
O2292      C2293   1.290       .  A
C2293      C2509   1.488       .  S
O2294     Zr2306   2.431       .  S
O2294      C2296   1.281       .  A
O2295     Zr2330   2.481       .  S
O2295      C2296   1.293       .  A
C2296      C2368   1.500       .  S
O2297     Zr2306   2.441       .  S
O2297      C2299   1.287       .  A
O2298     Zr2329   2.439       .  S
O2298      C2299   1.289       .  A
C2299      C2629   1.479       .  S
O2300     Zr2303   2.435       .  S
O2300      C2302   1.289       .  A
O2301     Zr2330   2.446       .  S
O2301      C2302   1.292       .  A
C2302      C2452   1.477       .  S
Zr2303     O2304   2.434       .  S
Zr2303     O2305   2.435       .  S
Zr2303     O2309   2.378       .  S
Zr2303     O2310   2.373       .  S
Zr2303     O2333   2.379       .  S
Zr2303     O2335   2.363       .  S
O2304      H2347   0.990       .  S
O2305      H2346   0.990       .  S
O2305      H2350   0.990       .  S
Zr2306     O2307   2.440       .  S
Zr2306     O2308   2.435       .  S
Zr2306     O2310   2.367       .  S
Zr2306     O2309   2.371       .  S
Zr2306     O2334   2.372       .  S
Zr2306     O2336   2.376       .  S
O2307      H2348   0.989       .  S
O2307      H2351   0.990       .  S
O2308      H2341   0.990       .  S
O2309     Zr2329   2.382       .  S
O2310     Zr2330   2.417       .  S
O2310      H2337   0.965       .  S
O2311     Zr2323   2.391       .  S
O2311      C2313   1.277       .  A
O2312     Zr2330   2.518       .  S
O2312      C2313   1.305       .  A
C2313      C2500   1.491       .  S
O2314     Zr2326   2.436       .  S
O2314      C2316   1.286       .  A
O2315     Zr2329   2.404       .  S
O2315      C2316   1.282       .  A
C2316      C2461   1.454       .  S
O2317     Zr2326   2.436       .  S
O2317      C2319   1.277       .  A
O2318     Zr2330   2.480       .  S
O2318      C2319   1.293       .  A
C2319      C2620   1.488       .  S
O2320     Zr2323   2.429       .  S
O2320      C2322   1.285       .  A
O2321     Zr2329   2.429       .  S
O2321      C2322   1.287       .  A
Zr2323     O2324   2.438       .  S
Zr2323     O2325   2.434   1_565  S
Zr2323     O2331   2.379       .  S
Zr2323     O2332   2.355       .  S
Zr2323     O2335   2.353       .  S
Zr2323     O2333   2.372       .  S
O2324      H2344   0.990       .  S
O2324      H2349   0.990       .  S
O2325      H2345   0.990   1_545  S
Zr2326     O2327   2.434       .  S
Zr2326     O2328   2.438       .  S
Zr2326     O2332   2.361       .  S
Zr2326     O2331   2.376       .  S
Zr2326     O2336   2.367       .  S
Zr2326     O2334   2.367       .  S
O2327      H2343   0.990       .  S
O2328      H2342   0.990       .  S
O2328      H2352   0.990       .  S
Zr2329     O2332   2.380       .  S
Zr2329     O2334   2.395       .  S
Zr2329     O2335   2.382       .  S
Zr2330     O2331   2.403       .  S
Zr2330     O2333   2.401       .  S
Zr2330     O2336   2.408       .  S
O2331      H2339   0.966       .  S
O2334      H2338   0.965       .  S
O2335      H2340   0.966       .  S
C2353      C2354   1.409       .  A
C2353      C2358   1.418       .  A
C2354      C2355   1.404       .  A
C2354      H2363   1.083       .  S
C2355      C2356   1.411       .  A
C2355      S2359   1.790       .  S
C2356      C4877   1.482       .  S
C2356      C2357   1.399       .  A
C2357      C2358   1.390       .  A
C2357      H2364   1.081       .  S
C2358      S2360   1.803       .  S
S2359      H5002   1.400       .  S
H2362      S4999   1.400       .  S
C2365      C2366   1.416       .  A
C2365      C2370   1.418       .  A
C2366      C2367   1.416       .  A
C2366      H2375   1.083       .  S
C2367      C2368   1.415       .  A
C2367      S2371   1.800       .  S
C2368      C2369   1.405       .  A
C2369      C2370   1.396       .  A
C2369      H2376   1.081       .  S
C2370      S2372   1.803       .  S
S2371      H2374   1.405       .  S
S2372      H2373   1.408       .  S
C2377      C2378   1.414       .  A
C2377      C2382   1.418       .  A
C2378      C2379   1.423       .  A
C2378      H2387   1.083       .  S
C2379      C2380   1.419       .  A
C2379      S2383   1.801       .  S
C2380      C2381   1.393       .  A
C2381      C2382   1.391       .  A
C2381      H2388   1.086       .  S
C2382      S2384   1.776       .  S
S2383      H2386   1.404       .  S
S2384      H2385   1.404       .  S
C2390      C2391   1.404       .  A
C2391      C2392   1.405       .  A
C2391      S2395   1.802       .  S
C2392      C2393   1.406       .  A
C2393      C2394   1.395       .  A
C2393      H2400   1.085       .  S
S2395      H2398   1.404       .  S
S2396      H2397   1.395   1_554  S
C2401      C2402   1.414       .  A
C2403      S2407   1.805       .  S
C2405      C2406   1.417       .  A
C2405      H2412   1.084       .  S
C2406      S2408   1.798       .  S
S2407      H2410   1.401       .  S
C2413      C2414   1.408       .  A
C2414      C2415   1.407   1_565  A
C2414      H2423   1.084       .  S
C2415      S2419   1.804       .  S
C2416      C2417   1.398       .  A
C2417      C2418   1.397       .  A
C2417      H2424   1.085       .  S
C2418      S2420   1.793       .  S
S2419      H2422   1.406       .  S
S2420      H2421   1.407       .  S
C2425      C2426   1.407       .  A
C2425      C2430   1.405       .  A
C2426      C2427   1.399       .  A
C2427      C2428   1.408       .  A
C2427      S2431   1.801       .  S
C2428      C2429   1.406       .  A
C2429      C2430   1.384       .  A
C2429      H2436   1.085       .  S
C2430      S2432   1.806       .  S
S2431      H2434   1.406       .  S
S2432      H2433   1.407       .  S
C2437      C2438   1.410       .  A
C2437      C2442   1.409       .  A
C2438      C2439   1.411       .  A
C2438      H2447   1.083       .  S
C2439      C2440   1.413       .  A
C2439      S2443   1.801       .  S
C2440      C2441   1.409       .  A
C2441      C2442   1.397       .  A
C2441      H2448   1.083       .  S
C2442      S2444   1.805       .  S
S2443      H2446   1.405       .  S
S2444      H2445   1.407       .  S
C2449      C2450   1.406       .  A
C2449      C2454   1.411       .  A
C2450      C2451   1.409       .  A
C2450      H2459   1.084       .  S
C2451      C2452   1.415       .  A
C2451      S2455   1.802       .  S
C2452      C2453   1.402       .  A
C2453      C2454   1.394       .  A
C2453      H2460   1.084       .  S
C2454      S2456   1.808       .  S
S2455      H2458   1.400       .  S
S2456      H2457   1.407       .  S
C2461      C2462   1.398       .  A
C2461      C2466   1.407       .  A
C2462      C2463   1.393       .  A
C2462      H2471   1.085       .  S
C2463      C2464   1.413       .  A
C2463      S5107   1.805       .  S
C2464      C4747   1.458       .  S
C2464      C2465   1.403       .  A
C2465      C2466   1.396       .  A
C2465      H2472   1.083       .  S
C2466      S2468   1.802       .  S
S2467      C5103   1.805   1_455  S
S2467      H2470   1.397       .  S
S2468      H2469   1.405       .  S
C2474      C5115   1.403       .  A
C2475      C5114   1.403   1_455  A
C2475      C2476   1.405       .  A
C2475      S2479   1.806       .  S
C2476      C2477   1.405       .  A
C2477      C5118   1.396   1_455  A
C2477      H2484   1.082       .  S
C2478      C5117   1.396       .  A
S2479      H2482   1.403       .  S
S2480      H2481   1.406   1_554  S
C2485      C2486   1.409       .  A
C2485      C2490   1.416       .  A
C2486      C2487   1.425       .  A
C2486      H2495   1.083       .  S
C2487      C5128   1.429       .  A
C2487      S2491   1.796       .  S
C2488      C5127   1.429   1_455  A
C2488      C2489   1.403       .  A
C2489      C5130   1.386   1_455  A
C2489      H2496   1.082       .  S
C2490      C5129   1.386       .  A
C2490      S2492   1.802       .  S
S2491      H5134   1.408       .  S
S2492      H2493   1.398       .  S
H2494      S5131   1.408   1_655  S
C2498      H2507   1.084       .  S
C2499      C2500   1.422       .  A
C2500      C2501   1.404       .  A
C2501      H2508   1.085       .  S
C2502      S2504   1.797       .  S
S2504      H2505   1.408       .  S
C2509      C2514   1.409       .  A
C2510      C2511   1.407       .  A
C2510      H2519   1.084       .  S
C2511      C2512   1.417       .  A
C2511      S2515   1.798       .  S
C2513      C2514   1.408   1_545  A
C2513      H2520   1.083       .  S
C2514      S2516   1.807       .  S
S2515      H2518   1.406       .  S
S2516      H2517   1.407       .  S
C2521      C4688   1.464   1_455  S
C2521      C2522   1.402       .  A
C2521      C2526   1.413       .  A
C2522      C2523   1.395       .  A
C2522      H2531   1.084   1_455  S
C2523      C2524   1.409       .  A
C2523      S2527   1.805       .  S
C2524      C2525   1.403       .  A
C2525      C2526   1.401       .  A
C2525      H2532   1.083       .  S
C2526      S2528   1.808       .  S
S2527      H2530   1.404       .  S
S2528      H5169   1.401       .  S
H2529      S5168   1.401       .  S
C2533      C2534   1.402       .  A
C2533      C2538   1.411       .  A
C2534      C2535   1.400       .  A
C2534      H2543   1.085       .  S
C2535      C2536   1.413       .  A
C2535      S2539   1.804       .  S
C2536      C2537   1.402       .  A
C2537      C2538   1.398       .  A
C2537      H2544   1.084       .  S
C2538      S2540   1.804       .  S
S2539      H2542   1.404       .  S
S2540      H2541   1.407       .  S
C2545      C2546   1.412       .  A
C2545      C2550   1.406       .  A
C2546      C4527   1.420   1_556  A
C2546      H2555   1.083       .  S
C2547      C4526   1.420   1_455  A
C2547      C2548   1.418       .  A
C2547      S2551   1.799       .  S
C2548      C2549   1.405       .  A
C2549      C4530   1.387   1_455  A
C2549      H2556   1.084       .  S
C2550      C4529   1.387   1_556  A
C2550      S2552   1.800       .  S
S2551      H2554   1.402       .  S
S2552      H2553   1.406       .  S
C2557      C2558   1.404       .  A
C2557      C2562   1.419       .  A
C2558      C2559   1.382       .  A
C2558      H2567   1.083       .  S
C2559      C5200   1.415       .  A
C2559      S2563   1.798       .  S
C2560      C5199   1.415       .  A
C2560      C2561   1.408       .  A
C2561      C5202   1.405   1_455  A
C2561      H2568   1.084       .  S
C2562      C5201   1.405       .  A
C2562      S2564   1.799       .  S
S2563      H5206   1.397       .  S
S2564      H2565   1.408       .  S
H2566      S5203   1.397       .  S
C2569      C2570   1.399       .  A
C2569      C2574   1.411       .  A
C2570      C2571   1.394       .  A
C2570      H2579   1.083       .  S
C2571      C2572   1.405       .  A
C2571      S2575   1.804       .  S
C2572      C2573   1.397       .  A
C2573      C2574   1.382       .  A
C2573      H2580   1.086       .  S
C2574      S2576   1.809       .  S
S2575      H2578   1.406       .  S
S2576      H2577   1.403       .  S
C2581      C2582   1.406       .  A
C2581      C2586   1.428       .  A
C2582      C2583   1.397       .  A
C2582      H2591   1.083       .  S
C2583      C2584   1.411       .  A
C2583      S2587   1.805       .  S
C2584      C2585   1.393       .  A
C2585      C2586   1.398       .  A
C2585      H2592   1.083       .  S
C2586      S2588   1.812       .  S
S2587      H2590   1.407       .  S
S2588      H2589   1.407       .  S
C2593      C2594   1.409       .  A
C2593      C2598   1.408       .  A
C2594      C2595   1.386       .  A
C2594      H2603   1.082       .  S
C2595      C2596   1.398       .  A
C2595      S2599   1.801       .  S
C2596      C4646   1.445   1_455  S
C2596      C2597   1.402       .  A
C2597      C2598   1.393       .  A
C2597      H2604   1.080       .  S
C2598      S2600   1.802       .  S
S2599      H2602   1.405       .  S
C2605      C2606   1.402       .  A
C2605      C2610   1.403       .  A
C2606      C2607   1.391       .  A
C2606      H2615   1.085       .  S
C2607      C2608   1.418       .  A
C2607      S2611   1.803       .  S
C2608      C2609   1.414       .  A
C2609      C2610   1.391       .  A
C2609      H2616   1.083       .  S
C2610      S2612   1.804       .  S
S2611      H2614   1.406       .  S
S2612      H2613   1.407       .  S
C2617      C2618   1.411       .  A
C2617      C2622   1.422       .  A
C2618      H2627   1.083       .  S
C2619      C2620   1.421       .  A
C2619      S2623   1.802       .  S
C2620      C2621   1.393       .  A
C2621      H2628   1.081       .  S
C2622      S2624   1.805       .  S
S2623      H2626   1.404       .  S
S2624      H2625   1.399       .  S
C2629      C2630   1.406       .  A
C2629      C2634   1.410       .  A
C2630      C2631   1.401       .  A
C2630      H2639   1.084       .  S
C2631      C2632   1.410       .  A
C2631      S2635   1.805       .  S
C2632      C2633   1.404       .  A
C2633      C2634   1.401       .  A
C2633      H2640   1.084       .  S
C2634      S2636   1.799       .  S
S2635      H2638   1.403       .  S
S2636      H2637   1.406       .  S
O2641     Zr2653   2.465       .  S
O2641      C2643   1.292       .  A
O2642     Zr2679   2.403       .  S
O2642      C2643   1.282       .  A
C2643      C3292   1.471       .  S
O2644     Zr2656   2.372       .  S
O2644      C2646   1.274       .  A
O2645     Zr2680   2.522       .  S
O2645      C2646   1.304       .  A
C2646      C3277   1.498       .  S
O2647     Zr2656   2.369       .  S
O2647      C2649   1.275       .  A
O2648     Zr2679   2.397       .  S
O2648      C2649   1.279       .  A
C2649      C3232   1.432       .  S
O2650     Zr2653   2.405       .  S
O2650      C2652   1.283       .  A
O2651     Zr2680   2.421       .  S
O2651      C2652   1.288       .  A
C2652      C3265   1.458       .  S
Zr2653     O2654   2.434       .  S
Zr2653     O2655   2.437       .  S
Zr2653     O2659   2.344       .  S
Zr2653     O2660   2.386       .  S
Zr2653     O2683   2.367       .  S
Zr2653     O2685   2.367       .  S
O2654      H2697   0.990       .  S
O2655      H2696   0.990       .  S
O2655      H2700   0.990       .  S
Zr2656     O2657   2.437       .  S
Zr2656     O2658   2.433       .  S
Zr2656     O2660   2.350       .  S
Zr2656     O2659   2.351       .  S
Zr2656     O2684   2.350       .  S
Zr2656     O2686   2.370       .  S
O2657      H2698   0.990       .  S
O2657      H2701   0.990       .  S
O2658      H2691   0.990       .  S
O2659     Zr2679   2.368       .  S
O2660     Zr2680   2.399       .  S
O2660      H2687   0.966       .  S
O2661     Zr2673   2.414       .  S
O2661      C2663   1.283       .  A
O2662     Zr2680   2.435       .  S
O2662      C2663   1.291       .  A
C2663      C3244   1.464       .  S
O2664     Zr2676   2.415       .  S
O2664      C2666   1.276       .  A
O2665     Zr2679   2.398       .  S
O2665      C2666   1.275       .  A
O2667     Zr2676   2.393       .  S
O2667      C2669   1.276       .  A
O2668     Zr2680   2.495       .  S
O2668      C2669   1.300       .  A
C2669      C3205   1.478       .  S
O2670     Zr2673   2.448       .  S
O2670      C2672   1.286       .  A
O2671     Zr2679   2.388       .  S
O2671      C2672   1.283       .  A
C2672      C3217   1.489       .  S
Zr2673     O2674   2.437       .  S
Zr2673     O2675   2.436       .  S
Zr2673     O2681   2.382       .  S
Zr2673     O2682   2.354       .  S
Zr2673     O2685   2.372       .  S
Zr2673     O2683   2.361       .  S
O2674      H2694   0.990       .  S
O2674      H2699   0.990       .  S
O2675      H2695   0.990       .  S
Zr2676     O2677   2.435   1_655  S
Zr2676     O2678   2.436       .  S
Zr2676     O2682   2.360       .  S
Zr2676     O2681   2.372       .  S
Zr2676     O2686   2.374       .  S
Zr2676     O2684   2.353       .  S
O2678      H2692   0.989       .  S
O2678      H2702   0.990       .  S
Zr2679     O2682   2.378       .  S
Zr2679     O2684   2.386       .  S
Zr2679     O2685   2.376       .  S
Zr2680     O2681   2.402       .  S
Zr2680     O2683   2.406       .  S
Zr2680     O2686   2.372       .  S
O2681      H2689   0.965       .  S
O2684      H2688   0.966       .  S
O2685      H2690   0.966       .  S
O2703     Zr2715   2.409       .  S
O2703      C2705   1.280       .  A
O2704     Zr2741   2.448       .  S
O2704      C2705   1.294       .  A
C2705      C3241   1.489       .  S
O2706     Zr2718   2.427       .  S
O2706      C2708   1.284       .  A
O2707     Zr2742   2.429       .  S
O2707      C2708   1.286       .  A
O2709     Zr2718   2.397       .  S
O2709      C2711   1.281       .  A
O2710     Zr2741   2.512       .  S
O2710      C2711   1.302       .  A
C2711      C3145   1.500       .  S
O2712     Zr2715   2.419       .  S
O2712      C2714   1.285       .  A
O2713     Zr2742   2.458       .  S
O2713      C2714   1.293       .  A
C2714      C3133   1.496       .  S
Zr2715     O2716   2.433       .  S
Zr2715     O2717   2.435       .  S
Zr2715     O2721   2.382       .  S
Zr2715     O2722   2.361       .  S
Zr2715     O2745   2.380       .  S
Zr2715     O2747   2.360       .  S
O2716      H2759   0.990       .  S
O2717      H2758   0.990       .  S
O2717      H2762   0.990       .  S
Zr2718     O2719   2.435   1_655  S
Zr2718     O2720   2.430       .  S
Zr2718     O2722   2.335       .  S
Zr2718     O2721   2.373       .  S
Zr2718     O2746   2.373       .  S
Zr2718     O2748   2.350       .  S
O2719      H2760   0.990       .  S
O2720      H2753   0.991       .  S
O2721     Zr2741   2.396       .  S
O2722     Zr2742   2.379       .  S
O2722      H2749   0.964       .  S
O2723     Zr2735   2.495       .  S
O2723      C2725   1.297       .  A
O2724     Zr2742   2.445       .  S
O2724      C2725   1.291       .  A
C2725      C3157   1.511   1_545  S
O2726     Zr2738   2.403       .  S
O2726      C2728   1.274       .  A
O2727     Zr2741   2.480       .  S
O2727      C2728   1.291       .  A
C2728      C3172   1.497       .  S
O2729     Zr2738   2.354       .  S
O2729      C2731   1.272   1_545  A
O2730     Zr2742   2.415       .  S
O2730      C2731   1.284   1_545  A
C2731      C4549   1.434       .  S
O2732     Zr2735   2.442       .  S
O2732      C2734   1.290       .  A
O2733     Zr2741   2.435       .  S
O2733      C2734   1.290       .  A
C2734      C3193   1.468       .  S
Zr2735     O2736   2.436       .  S
Zr2735     O2737   2.434       .  S
Zr2735     O2743   2.355       .  S
Zr2735     O2744   2.383       .  S
Zr2735     O2747   2.379       .  S
Zr2735     O2745   2.378       .  S
O2736      H2756   0.990       .  S
O2736      H2761   0.990       .  S
O2737      H2757   0.990       .  S
Zr2738     O4059   2.433   1_545  S
Zr2738     O2740   2.437       .  S
Zr2738     O2744   2.338       .  S
Zr2738     O2743   2.361       .  S
Zr2738     O2748   2.364       .  S
Zr2738     O2746   2.346       .  S
O2739     Zr4058   2.433       .  S
O2739      H4075   0.990       .  S
O2740      H2754   0.990       .  S
O2740      H2764   0.990       .  S
Zr2741     O2744   2.402       .  S
Zr2741     O2746   2.381       .  S
Zr2741     O2747   2.418       .  S
Zr2742     O2743   2.398       .  S
Zr2742     O2745   2.386       .  S
Zr2742     O2748   2.379       .  S
O2743      H2751   0.965       .  S
O2746      H2750   0.960       .  S
O2747      H2752   0.965       .  S
H2755      O4059   0.990       .  S
O2765     Zr2777   2.411       .  S
O2765      C2767   1.281       .  A
O2766     Zr2803   2.433       .  S
O2766      C2767   1.287       .  A
O2768     Zr2780   2.394       .  S
O2768      C2770   1.280       .  A
O2769     Zr2804   2.496       .  S
O2769      C2770   1.301       .  A
C2770      C3100   1.486       .  S
O2771     Zr2780   2.446       .  S
O2771      C2773   1.288       .  A
O2772     Zr2803   2.402       .  S
O2772      C2773   1.282       .  A
C2773      C3220   1.483       .  S
O2774     Zr2777   2.382       .  S
O2774      C2776   1.277       .  A
O2775     Zr2804   2.504       .  S
O2775      C2776   1.301       .  A
C2776      C3208   1.489       .  S
Zr2777     O2779   2.435       .  S
Zr2777     O2783   2.356       .  S
Zr2777     O2784   2.368       .  S
Zr2777     O2807   2.371       .  S
Zr2777     O2809   2.354       .  S
O2778      H2821   0.990       .  S
O2779      H2820   0.990       .  S
O2779      H2824   0.990       .  S
Zr2780     O2781   2.438       .  S
Zr2780     O2782   2.436       .  S
Zr2780     O2784   2.377       .  S
Zr2780     O2783   2.350       .  S
Zr2780     O2808   2.369       .  S
Zr2780     O2810   2.371       .  S
O2781      H2822   0.990       .  S
O2781      H2825   0.990       .  S
O2782      H2815   0.990       .  S
O2783     Zr2803   2.372       .  S
O2784     Zr2804   2.405       .  S
O2784      H2811   0.966       .  S
O2785     Zr2797   2.385       .  S
O2785      C2787   1.278       .  A
O2786     Zr2804   2.526       .  S
O2786      C2787   1.306       .  A
C2787      C3061   1.504       .  S
O2788     Zr2800   2.464       .  S
O2788      C2790   1.293       .  A
O2789     Zr2803   2.430       .  S
O2789      C2790   1.287       .  A
C2790      C3073   1.494       .  S
O2791     Zr2800   2.440       .  S
O2791      C2793   1.290       .  A
O2792     Zr2804   2.439       .  S
O2792      C2793   1.290       .  A
C2793      C3109   1.480       .  S
O2794     Zr2797   2.444       .  S
O2794      C2796   1.289       .  A
O2795     Zr2803   2.383       .  S
O2795      C2796   1.278       .  A
C2796      C4405   1.460       .  S
Zr2797     O2798   2.436       .  S
Zr2797     O2799   2.434       .  S
Zr2797     O2805   2.374       .  S
Zr2797     O2806   2.348       .  S
Zr2797     O2809   2.341       .  S
Zr2797     O2807   2.385       .  S
O2798      H2818   0.990       .  S
O2798      H4143   0.990       .  S
O2799      H2819   0.990       .  S
Zr2800     O2801   2.433       .  S
Zr2800     O2802   2.434       .  S
Zr2800     O2806   2.359       .  S
Zr2800     O2805   2.384       .  S
Zr2800     O2810   2.361       .  S
Zr2800     O2808   2.375       .  S
O2801      H2817   0.990       .  S
O2802      H2816   0.990       .  S
O2802      H2826   0.990       .  S
Zr2803     O2806   2.373       .  S
Zr2803     O2808   2.378       .  S
Zr2803     O2809   2.371       .  S
Zr2804     O2805   2.411       .  S
Zr2804     O2807   2.389       .  S
Zr2804     O2810   2.404       .  S
O2805      H2813   0.966       .  S
O2808      H2812   0.966       .  S
O2809      H2814   0.963       .  S
H2823      O4118   0.990       .  S
O2827     Zr2839   2.411       .  S
O2827      C2829   1.282       .  A
O2828     Zr2865   2.486       .  S
O2828      C2829   1.298       .  A
C2829      C3040   1.487       .  S
O2830     Zr2842   2.418       .  S
O2830      C2832   1.284       .  A
O2831     Zr2866   2.463       .  S
O2831      C2832   1.294       .  A
C2832      C3049   1.499       .  S
O2833     Zr2842   2.415       .  S
O2833      C2835   1.284       .  A
O2834     Zr2865   2.412       .  S
O2834      C2835   1.284       .  A
C2835      C3268   1.482       .  S
O2836     Zr2839   2.433       .  S
O2836      C2838   1.286       .  A
O2837     Zr2866   2.425       .  S
O2837      C2838   1.287       .  A
C2838      C3184   1.466       .  S
Zr2839     O2840   2.434       .  S
Zr2839     O2841   2.436       .  S
Zr2839     O2845   2.370       .  S
Zr2839     O2846   2.347       .  S
Zr2839     O2869   2.358       .  S
Zr2839     O2871   2.373       .  S
O2840      H2883   0.990       .  S
O2841      H2882   0.990       .  S
O2841      H2886   0.990       .  S
Zr2842     O2843   2.437       .  S
Zr2842     O2844   2.435       .  S
Zr2842     O2846   2.363       .  S
Zr2842     O2845   2.376       .  S
Zr2842     O2870   2.359       .  S
Zr2842     O2872   2.379       .  S
O2843      H2884   0.990       .  S
O2843      H2887   0.990       .  S
O2844      H2877   0.990       .  S
O2845     Zr2865   2.383       .  S
O2846     Zr2866   2.385       .  S
O2846      H2873   0.965       .  S
O2847     Zr2859   2.402   1_565  S
O2847      C2849   1.275       .  A
O2848     Zr2866   2.424       .  S
O2848      C2849   1.283   1_545  A
C2849      C4573   1.463       .  S
O2850     Zr2862   2.451       .  S
O2850      C2852   1.291       .  A
O2851     Zr2865   2.425       .  S
O2851      C2852   1.288       .  A
C2852      C3196   1.469       .  S
O2853     Zr2862   2.481       .  S
O2853      C2855   1.296       .  A
O2854     Zr2866   2.459       .  S
O2854      C2855   1.294       .  A
C2855      C3064   1.499       .  S
O2856     Zr2859   2.419       .  S
O2856      C2858   1.274       .  A
O2857     Zr2865   2.448       .  S
O2857      C2858   1.285       .  A
C2858      C3076   1.476       .  S
Zr2859     O4180   2.440   1_545  S
Zr2859     O2861   2.436       .  S
Zr2859     O2867   2.376       .  S
Zr2859     O2868   2.354       .  S
Zr2859     O2871   2.371       .  S
Zr2859     O2869   2.368       .  S
O2860     Zr4179   2.440       .  S
O2860      H2880   0.990       .  S
O2860      H2885   0.989       .  S
O2861      H2881   0.990       .  S
Zr2862     O2863   2.433       .  S
Zr2862     O2864   2.434       .  S
Zr2862     O2868   2.378       .  S
Zr2862     O2867   2.358       .  S
Zr2862     O2872   2.379       .  S
Zr2862     O2870   2.371       .  S
O2863      H2879   0.990       .  S
O2864      H2878   0.990       .  S
O2864      H2888   0.990       .  S
Zr2865     O2868   2.396       .  S
Zr2865     O2870   2.404       .  S
Zr2865     O2871   2.387       .  S
Zr2866     O2867   2.400       .  S
Zr2866     O2869   2.388       .  S
Zr2866     O2872   2.388       .  S
O2867      H2875   0.964       .  S
O2870      H2874   0.965       .  S
O2871      H2876   0.966       .  S
O2889     Zr2901   2.488       .  S
O2889      C2891   1.295       .  A
O2890     Zr2927   2.424       .  S
O2890      C2891   1.292       .  A
C2891      C3148   1.516       .  S
O2892     Zr2904   2.392       .  S
O2892      C2894   1.272       .  A
O2893     Zr2928   2.473       .  S
O2893      C2894   1.292       .  A
C2894      C3136   1.469       .  S
O2895     Zr2904   2.426       .  S
O2895      C2897   1.280       .  A
O2896     Zr2927   2.440       .  S
O2896      C2897   1.284       .  A
O2898     Zr2901   2.491       .  S
O2898      C2900   1.299       .  A
O2899     Zr2928   2.409       .  S
O2899      C2900   1.284       .  A
C2900      C3097   1.486       .  S
Zr2901     O2902   2.433       .  S
Zr2901     O2903   2.434       .  S
Zr2901     O2907   2.369       .  S
Zr2901     O2908   2.376       .  S
Zr2901     O2931   2.372       .  S
Zr2901     O2933   2.395       .  S
O2902      H2945   0.990       .  S
O2903      H2944   0.990       .  S
O2903      H2948   0.990       .  S
Zr2904     O2906   2.442       .  S
Zr2904     O2908   2.387       .  S
Zr2904     O2907   2.354       .  S
Zr2904     O2932   2.353       .  S
Zr2904     O2934   2.368       .  S
O2905      H2946   0.990       .  S
O2905      H2949   0.990       .  S
O2906      H2939   0.989       .  S
O2907     Zr2927   2.389       .  S
O2908     Zr2928   2.407       .  S
O2908      H2935   0.965       .  S
O2909     Zr2921   2.472       .  S
O2909      C2911   1.294       .  A
O2910     Zr2928   2.442       .  S
O2910      C2911   1.291       .  A
C2911      C3025   1.509       .  S
O2912     Zr2924   2.370       .  S
O2912      C2914   1.275       .  A
O2913     Zr2927   2.450       .  S
O2913      C2914   1.291       .  A
C2914      C3088   1.463       .  S
O2915     Zr2924   2.371       .  S
O2915      C2917   1.274       .  A
O2916     Zr2928   2.466       .  S
O2916      C2917   1.292       .  A
C2917      C3052   1.472       .  S
O2918     Zr2921   2.498       .  S
O2918      C2920   1.298       .  A
O2919     Zr2927   2.450       .  S
O2919      C2920   1.293       .  A
C2920      C3037   1.516       .  S
Zr2921     O2922   2.436       .  S
Zr2921     O2923   2.434       .  S
Zr2921     O2929   2.390       .  S
Zr2921     O2930   2.363       .  S
Zr2921     O2933   2.386       .  S
Zr2921     O2931   2.380       .  S
O2922      H2942   0.990       .  S
O2922      H2947   0.990       .  S
O2923      H2943   0.990       .  S
Zr2924     O2925   2.434       .  S
Zr2924     O2926   2.437       .  S
Zr2924     O2930   2.351       .  S
Zr2924     O2929   2.355       .  S
Zr2924     O2934   2.359       .  S
Zr2924     O2932   2.356       .  S
O2925      H2941   0.990       .  S
O2926      H2940   0.990       .  S
O2926      H2950   0.990       .  S
Zr2927     O2930   2.377       .  S
Zr2927     O2932   2.379       .  S
Zr2927     O2933   2.406       .  S
Zr2928     O2929   2.398       .  S
Zr2928     O2931   2.407       .  S
Zr2928     O2934   2.372       .  S
O2929      H2937   0.966       .  S
O2932      H2936   0.964       .  S
O2933      H2938   0.966       .  S
O2951     Zr2963   2.461       .  S
O2951      C2953   1.292       .  A
O2952     Zr2989   2.443       .  S
O2952      C2953   1.290       .  A
C2953      C3169   1.488       .  S
O2954     Zr2966   2.431       .  S
O2954      C2956   1.281       .  A
O2955     Zr2990   2.481       .  S
O2955      C2956   1.293       .  A
C2956      C3028   1.500       .  S
O2957     Zr2966   2.441       .  S
O2957      C2959   1.287       .  A
O2958     Zr2989   2.439       .  S
O2958      C2959   1.289       .  A
C2959      C3289   1.479       .  S
O2960     Zr2963   2.435       .  S
O2960      C2962   1.289       .  A
O2961     Zr2990   2.446       .  S
O2961      C2962   1.292       .  A
C2962      C3112   1.477       .  S
Zr2963     O2964   2.434       .  S
Zr2963     O2965   2.435       .  S
Zr2963     O2969   2.378       .  S
Zr2963     O2970   2.373       .  S
Zr2963     O2993   2.379       .  S
Zr2963     O2995   2.363       .  S
O2964      H3007   0.990       .  S
O2965      H3006   0.990       .  S
O2965      H3010   0.990       .  S
Zr2966     O2967   2.440       .  S
Zr2966     O2968   2.435       .  S
Zr2966     O2970   2.367       .  S
Zr2966     O2969   2.371       .  S
Zr2966     O2994   2.372       .  S
Zr2966     O2996   2.376       .  S
O2967      H3008   0.989       .  S
O2967      H3011   0.990       .  S
O2968      H3001   0.990       .  S
O2969     Zr2989   2.382       .  S
O2970     Zr2990   2.417       .  S
O2970      H2997   0.965       .  S
O2971     Zr2983   2.391       .  S
O2971      C2973   1.277       .  A
O2972     Zr2990   2.518       .  S
O2972      C2973   1.305       .  A
C2973      C3160   1.491       .  S
O2974     Zr2986   2.436       .  S
O2974      C2976   1.286       .  A
O2975     Zr2989   2.404       .  S
O2975      C2976   1.282       .  A
C2976      C3121   1.454       .  S
O2977     Zr2986   2.436       .  S
O2977      C2979   1.277       .  A
O2978     Zr2990   2.480       .  S
O2978      C2979   1.293       .  A
C2979      C3280   1.488       .  S
O2980     Zr2983   2.429       .  S
O2980      C2982   1.285       .  A
O2981     Zr2989   2.429       .  S
O2981      C2982   1.287       .  A
C2982      C4333   1.490       .  S
Zr2983     O2984   2.438       .  S
Zr2983     O2985   2.434       .  S
Zr2983     O2991   2.379       .  S
Zr2983     O2992   2.355       .  S
Zr2983     O2995   2.353       .  S
Zr2983     O2993   2.372       .  S
O2984      H3004   0.990       .  S
O2984      H3009   0.990       .  S
O2985      H3005   0.990       .  S
Zr2986     O2987   2.434       .  S
Zr2986     O2988   2.438       .  S
Zr2986     O2992   2.361       .  S
Zr2986     O2991   2.376       .  S
Zr2986     O2996   2.367       .  S
Zr2986     O2994   2.367       .  S
O2987      H3003   0.990       .  S
O2988      H3002   0.990       .  S
O2988      H3012   0.990       .  S
Zr2989     O2992   2.380       .  S
Zr2989     O2994   2.395       .  S
Zr2989     O2995   2.382       .  S
Zr2990     O2991   2.403       .  S
Zr2990     O2993   2.401       .  S
Zr2990     O2996   2.408       .  S
O2991      H2999   0.966       .  S
O2994      H2998   0.965       .  S
O2995      H3000   0.966       .  S
C3013      C4302   1.490   1_545  S
C3013      C3014   1.409       .  A
C3013      C3018   1.418       .  A
C3014      C3015   1.404       .  A
C3014      H3023   1.083       .  S
C3015      C3016   1.411       .  A
C3015      S3019   1.790       .  S
C3016      C3017   1.399       .  A
C3017      C3018   1.390       .  A
C3017      H3024   1.081       .  S
C3018      S3020   1.803       .  S
S3020      H4341   1.408       .  S
H3021      S4340   1.408       .  S
C3025      C3026   1.416       .  A
C3025      C3030   1.418       .  A
C3026      C3027   1.416       .  A
C3026      H3035   1.083       .  S
C3027      C3028   1.415       .  A
C3027      S3031   1.800       .  S
C3028      C3029   1.405       .  A
C3029      C3030   1.396       .  A
C3029      H3036   1.081       .  S
C3030      S3032   1.803       .  S
S3031      H3034   1.405       .  S
S3032      H3033   1.408       .  S
C3037      C3038   1.414       .  A
C3037      C3042   1.418       .  A
C3038      C3039   1.423       .  A
C3038      H3047   1.083       .  S
C3039      C3040   1.419       .  A
C3039      S3043   1.801       .  S
C3040      C3041   1.393       .  A
C3041      C3042   1.391       .  A
C3041      H3048   1.086       .  S
C3042      S3044   1.776       .  S
S3043      H3046   1.404       .  S
S3044      H3045   1.404       .  S
C3049      C3710   1.419       .  A
C3049      C3714   1.416       .  A
C3050      C3709   1.419   1_554  A
C3050      C3051   1.404       .  A
C3050      H3719   1.083   1_554  S
C3051      C3052   1.405       .  A
C3051      S3055   1.802       .  S
C3052      C3053   1.406       .  A
C3053      C3054   1.395       .  A
C3053      H3060   1.085       .  S
C3054      C3709   1.416   1_554  A
C3054      S3716   1.800       .  S
S3055      H3058   1.404       .  S
S3056      C3714   1.800       .  S
S3056      H3057   1.395       .  S
H3059      C3710   1.083       .  S
C3061      C3062   1.414       .  A
C3061      C3726   1.414   1_554  A
C3062      C4383   1.406       .  A
C3062      H4391   1.084       .  S
C3063      C4382   1.406   1_545  A
C3063      C3724   1.412   1_554  A
C3063      S3067   1.805       .  S
C3064      C3723   1.412       .  A
C3064      C4385   1.412   1_545  A
C3065      C4384   1.412       .  A
C3065      C3066   1.417       .  A
C3065      H3072   1.084       .  S
C3066      C3721   1.414       .  A
C3066      S3068   1.798       .  S
S3067      H3070   1.401   1_554  S
S3068      H3729   1.406       .  S
H3069      S3728   1.406       .  S
H3071      C4382   1.084       .  S
C3073      C3074   1.408       .  A
C3073      C4398   1.419       .  A
C3074      C3075   1.407       .  A
C3074      H3083   1.084       .  S
C3075      C4396   1.414       .  A
C3075      S3079   1.804       .  S
C3076      C4395   1.414       .  A
C3076      C3077   1.398       .  A
C3077      C3078   1.397       .  A
C3077      H3084   1.085       .  S
C3078      C4393   1.419   1_545  A
C3078      S3080   1.793       .  S
S3079      H3082   1.406       .  S
S3080      H3081   1.407   1_545  S
C3085      C4116   1.460   1_545  S
C3085      C3086   1.407       .  A
C3085      C3090   1.405       .  A
C3086      C3087   1.399       .  A
C3086      H4415   1.082   1_545  S
C3087      C3088   1.408       .  A
C3087      S3091   1.801       .  S
C3088      C3089   1.406       .  A
C3089      C3090   1.384       .  A
C3089      H3096   1.085       .  S
C3090      S3092   1.806       .  S
S3091      H3094   1.406       .  S
S3092      H3093   1.407       .  S
H3095      C4406   1.082       .  S
C3097      C3098   1.410       .  A
C3097      C3102   1.409       .  A
C3098      C3099   1.411       .  A
C3098      H3107   1.083       .  S
C3099      C3100   1.413       .  A
C3099      S3103   1.801       .  S
C3100      C3101   1.409       .  A
C3101      C3102   1.397       .  A
C3101      H3108   1.083       .  S
C3102      S3104   1.805       .  S
S3103      H3106   1.405       .  S
S3104      H3105   1.407       .  S
C3109      C3110   1.406       .  A
C3109      C3114   1.411       .  A
C3110      C3111   1.409       .  A
C3110      H3119   1.084       .  S
C3111      C3112   1.415       .  A
C3111      S3115   1.802       .  S
C3112      C3113   1.402       .  A
C3113      C3114   1.394       .  A
C3113      H3120   1.084       .  S
C3114      S3116   1.808       .  S
S3115      H3118   1.400       .  S
S3116      H3117   1.407       .  S
C3121      C3122   1.398       .  A
C3121      C3126   1.407       .  A
C3122      C3123   1.393       .  A
C3122      H3131   1.085       .  S
C3123      C3124   1.413       .  A
C3124      C3125   1.403       .  A
C3125      C3126   1.396       .  A
C3125      H3132   1.083       .  S
C3126      S3128   1.802       .  S
S3127      H3130   1.397       .  S
S3128      H3129   1.405       .  S
C3133      C3794   1.419       .  A
C3133      C3798   1.415       .  A
C3134      C3793   1.419   1_554  A
C3134      H3803   1.083   1_554  S
C3135      C3136   1.405       .  A
C3135      S3139   1.806       .  S
C3136      C3137   1.405       .  A
C3137      H3144   1.082       .  S
C3138      C3793   1.415   1_554  A
C3138      S3800   1.801       .  S
S3139      H3142   1.403       .  S
S3140      C3798   1.801       .  S
S3140      H3141   1.406       .  S
H3143      C3794   1.083       .  S
C3145      C3146   1.409       .  A
C3145      C3150   1.416       .  A
C3146      C3147   1.425       .  A
C3146      H3155   1.083       .  S
C3147      S3151   1.796   1_655  S
C3148      C3149   1.403       .  A
C3149      H3156   1.082       .  S
C3150      S3152   1.802       .  S
S3152      H3153   1.398       .  S
C3157      C3818   1.408       .  A
C3157      C4482   1.421       .  A
C3158      C3817   1.408       .  A
C3158      C4479   1.415   1_556  A
C3158      H3167   1.084   1_565  S
C3159      C4478   1.415   1_554  A
C3159      C3160   1.422       .  A
C3159      S4483   1.805       .  S
C3160      C3161   1.404   1_554  A
C3161      C3822   1.406       .  A
C3161      H3168   1.085       .  S
C3162      C4477   1.421       .  A
C3162      C3821   1.406       .  A
C3162      S3164   1.797       .  S
S3163      C4479   1.805       .  S
S3163      H4486   1.402       .  S
S3164      H3165   1.408       .  S
H3166      S4483   1.402       .  S
C3169      C4490   1.405       .  A
C3169      C3174   1.409       .  A
C3170      C4489   1.405   1_545  A
C3170      C3171   1.407       .  A
C3170      H3179   1.084       .  S
C3171      C3172   1.417       .  A
C3171      S3175   1.798       .  S
C3172      C4493   1.412       .  A
C3173      C4492   1.412       .  A
C3173      C3174   1.408       .  A
C3173      H3180   1.083       .  S
C3174      S3176   1.807       .  S
S3175      H3178   1.406       .  S
S3176      H3177   1.407       .  S
C3181      C3182   1.402       .  A
C3181      C3186   1.413       .  A
C3182      C3183   1.395       .  A
C3182      H3191   1.084       .  S
C3183      C3184   1.409       .  A
C3183      S3187   1.805       .  S
C3184      C3185   1.403       .  A
C3185      C3186   1.401       .  A
C3185      H3192   1.083       .  S
C3186      S3188   1.808       .  S
S3187      H3190   1.404       .  S
C3193      C3194   1.402       .  A
C3193      C3198   1.411       .  A
C3194      C3195   1.400       .  A
C3194      H3203   1.085       .  S
C3195      C3196   1.413       .  A
C3195      S3199   1.804       .  S
C3196      C3197   1.402       .  A
C3197      C3198   1.398       .  A
C3197      H3204   1.084       .  S
C3198      S3200   1.804       .  S
S3199      H3202   1.404       .  S
S3200      H3201   1.407       .  S
C3205      C3206   1.412       .  A
C3205      C3210   1.406       .  A
C3206      H3215   1.083       .  S
C3207      C3208   1.418       .  A
C3207      S3211   1.799       .  S
C3208      C3209   1.405       .  A
C3209      H3216   1.084       .  S
C3210      S3212   1.800       .  S
S3211      H3214   1.402       .  S
S3212      H3213   1.406       .  S
C3217      C3218   1.404       .  A
C3217      C3222   1.419       .  A
C3218      C3219   1.382   1_655  A
C3218      H3227   1.083       .  S
C3219      S3223   1.798       .  S
C3220      C3221   1.408       .  A
C3221      H3228   1.084       .  S
C3222      S3224   1.799       .  S
S3224      H3225   1.408       .  S
C3229      C4051   1.434       .  S
C3229      C3230   1.399       .  A
C3229      C3234   1.411       .  A
C3230      C3231   1.394       .  A
C3230      H3239   1.083       .  S
C3231      C3232   1.405       .  A
C3231      S3235   1.804       .  S
C3232      C3233   1.397       .  A
C3233      C3234   1.382       .  A
C3233      H3240   1.085       .  S
C3234      S3236   1.809       .  S
S3235      H3238   1.406       .  S
S3236      H3237   1.403       .  S
C3241      C3242   1.406       .  A
C3241      C3246   1.428       .  A
C3242      C3243   1.397       .  A
C3242      H3251   1.083       .  S
C3243      C3244   1.411       .  A
C3243      S3247   1.805       .  S
C3244      C3245   1.393       .  A
C3245      C3246   1.398       .  A
C3245      H3252   1.083       .  S
C3246      S3248   1.812       .  S
S3247      H3250   1.407       .  S
S3248      H3249   1.407       .  S
C3253      C4169   1.463       .  S
C3253      C3254   1.409       .  A
C3253      C3258   1.408       .  A
C3254      C3255   1.386       .  A
C3254      H3263   1.082       .  S
C3255      C3256   1.398       .  A
C3255      S3259   1.801       .  S
C3256      C3257   1.402       .  A
C3257      C3258   1.393       .  A
C3257      H3264   1.080       .  S
C3258      S3260   1.802       .  S
S3259      H3262   1.405       .  S
S3260      H4581   1.407       .  S
H3261      S4580   1.407       .  S
C3265      C3266   1.402       .  A
C3265      C3270   1.403       .  A
C3266      C3267   1.391       .  A
C3266      H3275   1.085       .  S
C3267      C3268   1.418       .  A
C3267      S3271   1.803       .  S
C3268      C3269   1.414       .  A
C3269      C3270   1.391       .  A
C3269      H3276   1.083       .  S
C3270      S3272   1.804       .  S
S3271      H3274   1.406       .  S
S3272      H3273   1.407       .  S
C3277      C3278   1.411       .  A
C3277      C3282   1.422       .  A
C3278      C3939   1.422       .  A
C3278      H3287   1.083       .  S
C3279      C3938   1.422   1_554  A
C3279      C3280   1.421       .  A
C3279      S3283   1.802       .  S
C3280      C3281   1.393       .  A
C3281      C3942   1.392   1_554  A
C3281      H3288   1.081       .  S
C3282      C3941   1.392       .  A
C3282      S3284   1.805       .  S
S3283      H3286   1.404       .  S
S3284      H3285   1.399       .  S
C3289      C3290   1.406       .  A
C3289      C3294   1.410       .  A
C3290      C3291   1.401       .  A
C3290      H3299   1.084       .  S
C3291      C3292   1.410       .  A
C3291      S3295   1.805       .  S
C3292      C3293   1.404       .  A
C3293      C3294   1.401       .  A
C3293      H3300   1.084       .  S
C3294      S3296   1.799       .  S
S3295      H3298   1.403       .  S
S3296      H3297   1.406       .  S
O3301     Zr3313   2.465       .  S
O3301      C3303   1.292       .  A
O3302     Zr3339   2.403       .  S
O3302      C3303   1.282       .  A
C3303      C3952   1.471       .  S
O3304     Zr3316   2.372       .  S
O3304      C3306   1.274       .  A
O3305     Zr3340   2.522       .  S
O3305      C3306   1.304       .  A
C3306      C3937   1.498       .  S
O3307     Zr3316   2.369       .  S
O3307      C3309   1.275       .  A
O3308     Zr3339   2.397       .  S
O3308      C3309   1.279       .  A
C3309      C3892   1.432       .  S
O3310     Zr3313   2.405       .  S
O3310      C3312   1.283       .  A
O3311     Zr3340   2.421       .  S
O3311      C3312   1.288       .  A
C3312      C3925   1.458       .  S
Zr3313     O3314   2.434       .  S
Zr3313     O3315   2.437       .  S
Zr3313     O3319   2.344       .  S
Zr3313     O3320   2.386       .  S
Zr3313     O3343   2.367       .  S
Zr3313     O3345   2.367       .  S
O3314      H3357   0.990       .  S
O3315      H3356   0.990       .  S
O3315      H3360   0.990       .  S
Zr3316     O3317   2.437       .  S
Zr3316     O3318   2.433       .  S
Zr3316     O3320   2.350       .  S
Zr3316     O3319   2.351       .  S
Zr3316     O3344   2.350       .  S
Zr3316     O3346   2.370       .  S
O3317      H3358   0.990       .  S
O3317      H3361   0.990       .  S
O3318      H3351   0.990       .  S
O3319     Zr3339   2.368       .  S
O3320     Zr3340   2.399       .  S
O3320      H3347   0.966       .  S
O3321     Zr3333   2.414       .  S
O3321      C3323   1.283       .  A
O3322     Zr3340   2.435       .  S
O3322      C3323   1.291       .  A
C3323      C3904   1.464       .  S
O3324     Zr3336   2.415       .  S
O3324      C3326   1.276       .  A
O3325     Zr3339   2.398       .  S
O3325      C3326   1.275       .  A
O3327     Zr3336   2.393       .  S
O3327      C3329   1.276       .  A
O3328     Zr3340   2.495       .  S
O3328      C3329   1.300       .  A
C3329      C3865   1.478       .  S
O3330     Zr3333   2.448       .  S
O3330      C3332   1.286       .  A
O3331     Zr3339   2.388       .  S
O3331      C3332   1.283       .  A
C3332      C3877   1.489       .  S
Zr3333     O3334   2.437       .  S
Zr3333     O3335   2.436       .  S
Zr3333     O3341   2.382       .  S
Zr3333     O3342   2.354       .  S
Zr3333     O3345   2.372       .  S
Zr3333     O3343   2.361       .  S
O3334      H3354   0.990       .  S
O3334      H3359   0.990       .  S
O3335      H3355   0.990       .  S
Zr3336     O3337   2.435   1_655  S
Zr3336     O3338   2.436       .  S
Zr3336     O3342   2.360       .  S
Zr3336     O3341   2.372       .  S
Zr3336     O3346   2.374       .  S
Zr3336     O3344   2.353       .  S
O3338      H3352   0.989       .  S
O3338      H3362   0.990       .  S
Zr3339     O3342   2.378       .  S
Zr3339     O3344   2.386       .  S
Zr3339     O3345   2.376       .  S
Zr3340     O3341   2.402       .  S
Zr3340     O3343   2.406       .  S
Zr3340     O3346   2.372       .  S
O3341      H3349   0.965       .  S
O3344      H3348   0.966       .  S
O3345      H3350   0.966       .  S
O3363     Zr3375   2.409       .  S
O3363      C3365   1.280       .  A
O3364     Zr3401   2.448       .  S
O3364      C3365   1.294       .  A
C3365      C3901   1.489       .  S
O3366     Zr3378   2.427       .  S
O3366      C3368   1.284       .  A
O3367     Zr3402   2.429       .  S
O3367      C3368   1.286       .  A
O3369     Zr3378   2.397       .  S
O3369      C3371   1.281       .  A
O3370     Zr3401   2.512       .  S
O3370      C3371   1.302       .  A
C3371      C3805   1.500       .  S
O3372     Zr3375   2.419       .  S
O3372      C3374   1.285       .  A
O3373     Zr3402   2.458       .  S
O3373      C3374   1.293       .  A
C3374      C3793   1.496       .  S
Zr3375     O3376   2.433       .  S
Zr3375     O3377   2.435       .  S
Zr3375     O3381   2.382       .  S
Zr3375     O3382   2.361       .  S
Zr3375     O3405   2.380       .  S
Zr3375     O3407   2.360       .  S
O3376      H3419   0.990       .  S
O3377      H3418   0.990       .  S
O3377      H3422   0.990       .  S
Zr3378     O3379   2.435   1_655  S
Zr3378     O3380   2.430       .  S
Zr3378     O3382   2.335       .  S
Zr3378     O3381   2.373       .  S
Zr3378     O3406   2.373       .  S
Zr3378     O3408   2.350       .  S
O3379      H3420   0.990       .  S
O3380      H3413   0.991       .  S
O3381     Zr3401   2.396       .  S
O3382     Zr3402   2.379       .  S
O3382      H3409   0.964       .  S
O3383     Zr3395   2.495       .  S
O3383      C3385   1.297       .  A
O3384     Zr3402   2.445       .  S
O3384      C3385   1.291       .  A
C3385      C3817   1.511   1_545  S
O3386     Zr3398   2.403       .  S
O3386      C3388   1.274       .  A
O3387     Zr3401   2.480       .  S
O3387      C3388   1.291       .  A
C3388      C3832   1.497       .  S
O3389     Zr3398   2.354       .  S
O3389      C3391   1.272   1_545  A
O3390     Zr3402   2.415       .  S
O3390      C3391   1.284   1_545  A
C3391      C5209   1.434       .  S
O3392     Zr3395   2.442       .  S
O3392      C3394   1.290       .  A
O3393     Zr3401   2.435       .  S
O3393      C3394   1.290       .  A
C3394      C3853   1.468       .  S
Zr3395     O3396   2.436       .  S
Zr3395     O3397   2.434       .  S
Zr3395     O3403   2.355       .  S
Zr3395     O3404   2.383       .  S
Zr3395     O3407   2.379       .  S
Zr3395     O3405   2.378       .  S
O3396      H3416   0.990       .  S
O3396      H3421   0.990       .  S
O3397      H3417   0.990       .  S
Zr3398     O4719   2.433   1_545  S
Zr3398     O3400   2.437       .  S
Zr3398     O3404   2.338       .  S
Zr3398     O3403   2.361       .  S
Zr3398     O3408   2.364       .  S
Zr3398     O3406   2.346       .  S
O3399     Zr4718   2.433       .  S
O3399      H4735   0.990       .  S
O3400      H3414   0.990       .  S
O3400      H3424   0.990       .  S
Zr3401     O3404   2.402       .  S
Zr3401     O3406   2.381       .  S
Zr3401     O3407   2.418       .  S
Zr3402     O3403   2.398       .  S
Zr3402     O3405   2.386       .  S
Zr3402     O3408   2.379       .  S
O3403      H3411   0.965       .  S
O3406      H3410   0.960       .  S
O3407      H3412   0.965       .  S
H3415      O4719   0.990       .  S
O3425     Zr3437   2.411       .  S
O3425      C3427   1.281       .  A
O3426     Zr3463   2.433       .  S
O3426      C3427   1.287       .  A
O3428     Zr3440   2.394       .  S
O3428      C3430   1.280       .  A
O3429     Zr3464   2.496       .  S
O3429      C3430   1.301       .  A
C3430      C3760   1.486       .  S
O3431     Zr3440   2.446       .  S
O3431      C3433   1.288       .  A
O3432     Zr3463   2.402       .  S
O3432      C3433   1.282       .  A
C3433      C3880   1.483       .  S
O3434     Zr3437   2.382       .  S
O3434      C3436   1.277       .  A
O3435     Zr3464   2.504       .  S
O3435      C3436   1.301       .  A
C3436      C3868   1.489       .  S
Zr3437     O3439   2.435       .  S
Zr3437     O3443   2.356       .  S
Zr3437     O3444   2.368       .  S
Zr3437     O3467   2.371       .  S
Zr3437     O3469   2.354       .  S
O3438      H3481   0.990       .  S
O3439      H3480   0.990       .  S
O3439      H3484   0.990       .  S
Zr3440     O3441   2.438       .  S
Zr3440     O3442   2.436       .  S
Zr3440     O3444   2.377       .  S
Zr3440     O3443   2.350       .  S
Zr3440     O3468   2.369       .  S
Zr3440     O3470   2.371       .  S
O3441      H3482   0.990       .  S
O3441      H3485   0.990       .  S
O3442      H3475   0.990       .  S
O3443     Zr3463   2.372       .  S
O3444     Zr3464   2.405       .  S
O3444      H3471   0.966       .  S
O3445     Zr3457   2.385       .  S
O3445      C3447   1.278       .  A
O3446     Zr3464   2.526       .  S
O3446      C3447   1.306       .  A
C3447      C3721   1.504       .  S
O3448     Zr3460   2.464       .  S
O3448      C3450   1.293       .  A
O3449     Zr3463   2.430       .  S
O3449      C3450   1.287       .  A
C3450      C3733   1.494       .  S
O3451     Zr3460   2.440       .  S
O3451      C3453   1.290       .  A
O3452     Zr3464   2.439       .  S
O3452      C3453   1.290       .  A
C3453      C3769   1.480       .  S
O3454     Zr3457   2.444       .  S
O3454      C3456   1.289       .  A
O3455     Zr3463   2.383       .  S
O3455      C3456   1.278       .  A
C3456      C5065   1.460       .  S
Zr3457     O3458   2.436       .  S
Zr3457     O3459   2.434       .  S
Zr3457     O3465   2.374       .  S
Zr3457     O3466   2.348       .  S
Zr3457     O3469   2.341       .  S
Zr3457     O3467   2.385       .  S
O3458      H3478   0.990       .  S
O3458      H4803   0.990       .  S
O3459      H3479   0.990       .  S
Zr3460     O3461   2.433       .  S
Zr3460     O3462   2.434       .  S
Zr3460     O3466   2.359       .  S
Zr3460     O3465   2.384       .  S
Zr3460     O3470   2.361       .  S
Zr3460     O3468   2.375       .  S
O3461      H3477   0.990       .  S
O3462      H3476   0.990       .  S
O3462      H3486   0.990       .  S
Zr3463     O3466   2.373       .  S
Zr3463     O3468   2.378       .  S
Zr3463     O3469   2.371       .  S
Zr3464     O3465   2.411       .  S
Zr3464     O3467   2.389       .  S
Zr3464     O3470   2.404       .  S
O3465      H3473   0.966       .  S
O3468      H3472   0.966       .  S
O3469      H3474   0.963       .  S
H3483      O4778   0.990       .  S
O3487     Zr3499   2.411       .  S
O3487      C3489   1.282       .  A
O3488     Zr3525   2.486       .  S
O3488      C3489   1.298       .  A
C3489      C3700   1.487       .  S
O3490     Zr3502   2.418       .  S
O3490      C3492   1.284       .  A
O3491     Zr3526   2.463       .  S
O3491      C3492   1.294       .  A
C3492      C3709   1.499       .  S
O3493     Zr3502   2.415       .  S
O3493      C3495   1.284       .  A
O3494     Zr3525   2.412       .  S
O3494      C3495   1.284       .  A
C3495      C3928   1.482       .  S
O3496     Zr3499   2.433       .  S
O3496      C3498   1.286       .  A
O3497     Zr3526   2.425       .  S
O3497      C3498   1.287       .  A
C3498      C3844   1.466       .  S
Zr3499     O3500   2.434       .  S
Zr3499     O3501   2.436       .  S
Zr3499     O3505   2.370       .  S
Zr3499     O3506   2.347       .  S
Zr3499     O3529   2.358       .  S
Zr3499     O3531   2.373       .  S
O3500      H3543   0.990       .  S
O3501      H3542   0.990       .  S
O3501      H3546   0.990       .  S
Zr3502     O3503   2.437       .  S
Zr3502     O3504   2.435       .  S
Zr3502     O3506   2.363       .  S
Zr3502     O3505   2.376       .  S
Zr3502     O3530   2.359       .  S
Zr3502     O3532   2.379       .  S
O3503      H3544   0.990       .  S
O3503      H3547   0.990       .  S
O3504      H3537   0.990       .  S
O3505     Zr3525   2.383       .  S
O3506     Zr3526   2.385       .  S
O3506      H3533   0.965       .  S
O3507     Zr3519   2.402   1_565  S
O3507      C3509   1.275       .  A
O3508     Zr3526   2.424       .  S
O3508      C3509   1.283   1_545  A
C3509      C5233   1.463       .  S
O3510     Zr3522   2.451       .  S
O3510      C3512   1.291       .  A
O3511     Zr3525   2.425       .  S
O3511      C3512   1.288       .  A
C3512      C3856   1.469       .  S
O3513     Zr3522   2.481       .  S
O3513      C3515   1.296       .  A
O3514     Zr3526   2.459       .  S
O3514      C3515   1.294       .  A
C3515      C3724   1.499       .  S
O3516     Zr3519   2.419       .  S
O3516      C3518   1.274       .  A
O3517     Zr3525   2.448       .  S
O3517      C3518   1.285       .  A
C3518      C3736   1.476       .  S
Zr3519     O4840   2.440   1_545  S
Zr3519     O3521   2.436       .  S
Zr3519     O3527   2.376       .  S
Zr3519     O3528   2.354       .  S
Zr3519     O3531   2.371       .  S
Zr3519     O3529   2.368       .  S
O3520     Zr4839   2.440       .  S
O3520      H3540   0.990       .  S
O3520      H3545   0.989       .  S
O3521      H3541   0.990       .  S
Zr3522     O3523   2.433       .  S
Zr3522     O3524   2.434       .  S
Zr3522     O3528   2.378       .  S
Zr3522     O3527   2.358       .  S
Zr3522     O3532   2.379       .  S
Zr3522     O3530   2.371       .  S
O3523      H3539   0.990       .  S
O3524      H3538   0.990       .  S
O3524      H3548   0.990       .  S
Zr3525     O3528   2.396       .  S
Zr3525     O3530   2.404       .  S
Zr3525     O3531   2.387       .  S
Zr3526     O3527   2.400       .  S
Zr3526     O3529   2.388       .  S
Zr3526     O3532   2.388       .  S
O3527      H3535   0.964       .  S
O3530      H3534   0.965       .  S
O3531      H3536   0.966       .  S
O3549     Zr3561   2.488       .  S
O3549      C3551   1.295       .  A
O3550     Zr3587   2.424       .  S
O3550      C3551   1.292       .  A
C3551      C3808   1.516       .  S
O3552     Zr3564   2.392       .  S
O3552      C3554   1.272       .  A
O3553     Zr3588   2.473       .  S
O3553      C3554   1.292       .  A
C3554      C3796   1.469       .  S
O3555     Zr3564   2.426       .  S
O3555      C3557   1.280       .  A
O3556     Zr3587   2.440       .  S
O3556      C3557   1.284       .  A
O3558     Zr3561   2.491       .  S
O3558      C3560   1.299       .  A
O3559     Zr3588   2.409       .  S
O3559      C3560   1.284       .  A
C3560      C3757   1.486       .  S
Zr3561     O3562   2.433       .  S
Zr3561     O3563   2.434       .  S
Zr3561     O3567   2.369       .  S
Zr3561     O3568   2.376       .  S
Zr3561     O3591   2.372       .  S
Zr3561     O3593   2.395       .  S
O3562      H3605   0.990       .  S
O3563      H3604   0.990       .  S
O3563      H3608   0.990       .  S
Zr3564     O3566   2.442       .  S
Zr3564     O3568   2.387       .  S
Zr3564     O3567   2.354       .  S
Zr3564     O3592   2.353       .  S
Zr3564     O3594   2.368       .  S
O3565      H3606   0.990       .  S
O3565      H3609   0.990       .  S
O3566      H3599   0.989       .  S
O3567     Zr3587   2.389       .  S
O3568     Zr3588   2.407       .  S
O3568      H3595   0.965       .  S
O3569     Zr3581   2.472       .  S
O3569      C3571   1.294       .  A
O3570     Zr3588   2.442       .  S
O3570      C3571   1.291       .  A
C3571      C3685   1.509       .  S
O3572     Zr3584   2.370       .  S
O3572      C3574   1.275       .  A
O3573     Zr3587   2.450       .  S
O3573      C3574   1.291       .  A
C3574      C3748   1.463       .  S
O3575     Zr3584   2.371       .  S
O3575      C3577   1.274       .  A
O3576     Zr3588   2.466       .  S
O3576      C3577   1.292       .  A
C3577      C3712   1.472       .  S
O3578     Zr3581   2.498       .  S
O3578      C3580   1.298       .  A
O3579     Zr3587   2.450       .  S
O3579      C3580   1.293       .  A
C3580      C3697   1.516       .  S
Zr3581     O3582   2.436       .  S
Zr3581     O3583   2.434       .  S
Zr3581     O3589   2.390       .  S
Zr3581     O3590   2.363       .  S
Zr3581     O3593   2.386       .  S
Zr3581     O3591   2.380       .  S
O3582      H3602   0.990       .  S
O3582      H3607   0.990       .  S
O3583      H3603   0.990       .  S
Zr3584     O3585   2.434       .  S
Zr3584     O3586   2.437       .  S
Zr3584     O3590   2.351       .  S
Zr3584     O3589   2.355       .  S
Zr3584     O3594   2.359       .  S
Zr3584     O3592   2.356       .  S
O3585      H3601   0.990       .  S
O3586      H3600   0.990       .  S
O3586      H3610   0.990       .  S
Zr3587     O3590   2.377       .  S
Zr3587     O3592   2.379       .  S
Zr3587     O3593   2.406       .  S
Zr3588     O3589   2.398       .  S
Zr3588     O3591   2.407       .  S
Zr3588     O3594   2.372       .  S
O3589      H3597   0.966       .  S
O3592      H3596   0.964       .  S
O3593      H3598   0.966       .  S
O3611     Zr3623   2.461       .  S
O3611      C3613   1.292       .  A
O3612     Zr3649   2.443       .  S
O3612      C3613   1.290       .  A
C3613      C3829   1.488       .  S
O3614     Zr3626   2.431       .  S
O3614      C3616   1.281       .  A
O3615     Zr3650   2.481       .  S
O3615      C3616   1.293       .  A
C3616      C3688   1.500       .  S
O3617     Zr3626   2.441       .  S
O3617      C3619   1.287       .  A
O3618     Zr3649   2.439       .  S
O3618      C3619   1.289       .  A
C3619      C3949   1.479       .  S
O3620     Zr3623   2.435       .  S
O3620      C3622   1.289       .  A
O3621     Zr3650   2.446       .  S
O3621      C3622   1.292       .  A
C3622      C3772   1.477       .  S
Zr3623     O3624   2.434       .  S
Zr3623     O3625   2.435       .  S
Zr3623     O3629   2.378       .  S
Zr3623     O3630   2.373       .  S
Zr3623     O3653   2.379       .  S
Zr3623     O3655   2.363       .  S
O3624      H3667   0.990       .  S
O3625      H3666   0.990       .  S
O3625      H3670   0.990       .  S
Zr3626     O3627   2.440       .  S
Zr3626     O3628   2.435       .  S
Zr3626     O3630   2.367       .  S
Zr3626     O3629   2.371       .  S
Zr3626     O3654   2.372       .  S
Zr3626     O3656   2.376       .  S
O3627      H3668   0.989       .  S
O3627      H3671   0.990       .  S
O3628      H3661   0.990       .  S
O3629     Zr3649   2.382       .  S
O3630     Zr3650   2.417       .  S
O3630      H3657   0.965       .  S
O3631     Zr3643   2.391       .  S
O3631      C3633   1.277       .  A
O3632     Zr3650   2.518       .  S
O3632      C3633   1.305       .  A
C3633      C3820   1.491       .  S
O3634     Zr3646   2.436       .  S
O3634      C3636   1.286       .  A
O3635     Zr3649   2.404       .  S
O3635      C3636   1.282       .  A
C3636      C3781   1.454       .  S
O3637     Zr3646   2.436       .  S
O3637      C3639   1.277       .  A
O3638     Zr3650   2.480       .  S
O3638      C3639   1.293       .  A
C3639      C3940   1.488       .  S
O3640     Zr3643   2.429       .  S
O3640      C3642   1.285       .  A
O3641     Zr3649   2.429       .  S
O3641      C3642   1.287       .  A
C3642      C4993   1.490       .  S
Zr3643     O3644   2.438       .  S
Zr3643     O3645   2.434       .  S
Zr3643     O3651   2.379       .  S
Zr3643     O3652   2.355       .  S
Zr3643     O3655   2.353       .  S
Zr3643     O3653   2.372       .  S
O3644      H3664   0.990       .  S
O3644      H3669   0.990       .  S
O3645      H3665   0.990       .  S
Zr3646     O3647   2.434       .  S
Zr3646     O3648   2.438       .  S
Zr3646     O3652   2.361       .  S
Zr3646     O3651   2.376       .  S
Zr3646     O3656   2.367       .  S
Zr3646     O3654   2.367       .  S
O3647      H3663   0.990       .  S
O3648      H3662   0.990       .  S
O3648      H3672   0.990       .  S
Zr3649     O3652   2.380       .  S
Zr3649     O3654   2.395       .  S
Zr3649     O3655   2.382       .  S
Zr3650     O3651   2.403       .  S
Zr3650     O3653   2.401       .  S
Zr3650     O3656   2.408       .  S
O3651      H3659   0.966       .  S
O3654      H3658   0.965       .  S
O3655      H3660   0.966       .  S
C3673      C4962   1.490   1_545  S
C3673      C3674   1.409       .  A
C3673      C3678   1.418       .  A
C3674      C3675   1.404       .  A
C3674      H3683   1.083       .  S
C3675      C3676   1.411       .  A
C3675      S3679   1.790       .  S
C3676      C3677   1.399       .  A
C3677      C3678   1.390       .  A
C3677      H3684   1.081       .  S
C3678      S3680   1.803       .  S
S3680      H5001   1.408       .  S
H3681      S5000   1.408       .  S
C3685      C3686   1.416       .  A
C3685      C3690   1.418       .  A
C3686      C3687   1.416       .  A
C3686      H3695   1.083       .  S
C3687      C3688   1.415       .  A
C3687      S3691   1.800       .  S
C3688      C3689   1.405       .  A
C3689      C3690   1.396       .  A
C3689      H3696   1.081       .  S
C3690      S3692   1.803       .  S
S3691      H3694   1.405       .  S
S3692      H3693   1.408       .  S
C3697      C3698   1.414       .  A
C3697      C3702   1.418       .  A
C3698      C3699   1.423       .  A
C3698      H3707   1.083       .  S
C3699      C3700   1.419       .  A
C3699      S3703   1.801       .  S
C3700      C3701   1.393       .  A
C3701      C3702   1.391       .  A
C3701      H3708   1.086       .  S
C3702      S3704   1.776       .  S
S3703      H3706   1.404       .  S
S3704      H3705   1.404       .  S
C3710      C3711   1.404       .  A
C3711      C3712   1.405       .  A
C3711      S3715   1.802       .  S
C3712      C3713   1.406       .  A
C3713      C3714   1.395       .  A
C3713      H3720   1.085       .  S
S3715      H3718   1.404       .  S
S3716      H3717   1.395   1_554  S
C3721      C3722   1.414       .  A
C3722      C5043   1.406       .  A
C3722      H5051   1.084       .  S
C3723      C5042   1.406   1_545  A
C3723      S3727   1.805       .  S
C3724      C5045   1.412   1_545  A
C3725      C5044   1.412       .  A
C3725      C3726   1.417       .  A
C3725      H3732   1.084       .  S
C3726      S3728   1.798       .  S
S3727      H3730   1.401       .  S
H3731      C5042   1.084       .  S
C3733      C3734   1.408       .  A
C3733      C5058   1.419       .  A
C3734      C3735   1.407       .  A
C3734      H3743   1.084       .  S
C3735      C5056   1.414       .  A
C3735      S3739   1.804       .  S
C3736      C5055   1.414       .  A
C3736      C3737   1.398       .  A
C3737      C3738   1.397       .  A
C3737      H3744   1.085       .  S
C3738      C5053   1.419   1_545  A
C3738      S3740   1.793       .  S
S3739      H3742   1.406       .  S
S3740      H3741   1.407   1_545  S
C3745      C4776   1.460   1_545  S
C3745      C3746   1.407       .  A
C3745      C3750   1.405       .  A
C3746      C3747   1.399       .  A
C3746      H5075   1.082   1_545  S
C3747      C3748   1.408       .  A
C3747      S3751   1.801       .  S
C3748      C3749   1.406       .  A
C3749      C3750   1.384       .  A
C3749      H3756   1.085       .  S
C3750      S3752   1.806       .  S
S3751      H3754   1.406       .  S
S3752      H3753   1.407       .  S
H3755      C5066   1.082       .  S
C3757      C3758   1.410       .  A
C3757      C3762   1.409       .  A
C3758      C3759   1.411       .  A
C3758      H3767   1.083       .  S
C3759      C3760   1.413       .  A
C3759      S3763   1.801       .  S
C3760      C3761   1.409       .  A
C3761      C3762   1.397       .  A
C3761      H3768   1.083       .  S
C3762      S3764   1.805       .  S
S3763      H3766   1.405       .  S
S3764      H3765   1.407       .  S
C3769      C3770   1.406       .  A
C3769      C3774   1.411       .  A
C3770      C3771   1.409       .  A
C3770      H3779   1.084       .  S
C3771      C3772   1.415       .  A
C3771      S3775   1.802       .  S
C3772      C3773   1.402       .  A
C3773      C3774   1.394       .  A
C3773      H3780   1.084       .  S
C3774      S3776   1.808       .  S
S3775      H3778   1.400       .  S
S3776      H3777   1.407       .  S
C3781      C3782   1.398       .  A
C3781      C3786   1.407       .  A
C3782      C3783   1.393       .  A
C3782      H3791   1.085       .  S
C3783      C3784   1.413       .  A
C3784      C3785   1.403       .  A
C3785      C3786   1.396       .  A
C3785      H3792   1.083       .  S
C3786      S3788   1.802       .  S
S3787      H3790   1.397       .  S
S3788      H3789   1.405       .  S
C3795      C3796   1.405       .  A
C3795      S3799   1.806       .  S
C3796      C3797   1.405       .  A
C3797      H3804   1.082       .  S
S3799      H3802   1.403       .  S
S3800      H3801   1.406   1_554  S
C3805      C3806   1.409       .  A
C3805      C3810   1.416       .  A
C3806      C3807   1.425       .  A
C3806      H3815   1.083       .  S
C3807      S3811   1.796   1_655  S
C3808      C3809   1.403       .  A
C3809      H3816   1.082       .  S
C3810      S3812   1.802       .  S
S3812      H3813   1.398       .  S
C3817      C5142   1.421       .  A
C3818      C5139   1.415       .  A
C3818      H3827   1.084   1_565  S
C3819      C5138   1.415       .  A
C3819      C3820   1.422       .  A
C3819      S5143   1.805       .  S
C3820      C3821   1.404       .  A
C3821      H3828   1.085       .  S
C3822      C5137   1.421       .  A
C3822      S3824   1.797       .  S
S3823      C5139   1.805       .  S
S3823      H5146   1.402       .  S
S3824      H3825   1.408       .  S
H3826      S5143   1.402       .  S
C3829      C5150   1.405       .  A
C3829      C3834   1.409       .  A
C3830      C5149   1.405   1_545  A
C3830      C3831   1.407       .  A
C3830      H3839   1.084       .  S
C3831      C3832   1.417       .  A
C3831      S3835   1.798       .  S
C3832      C5153   1.412       .  A
C3833      C5152   1.412       .  A
C3833      C3834   1.408       .  A
C3833      H3840   1.083       .  S
C3834      S3836   1.807       .  S
S3835      H3838   1.406       .  S
S3836      H3837   1.407       .  S
C3841      C3842   1.402       .  A
C3841      C3846   1.413       .  A
C3842      C3843   1.395       .  A
C3842      H3851   1.084       .  S
C3843      C3844   1.409       .  A
C3843      S3847   1.805       .  S
C3844      C3845   1.403       .  A
C3845      C3846   1.401       .  A
C3845      H3852   1.083       .  S
C3846      S3848   1.808       .  S
S3847      H3850   1.404       .  S
C3853      C3854   1.402       .  A
C3853      C3858   1.411       .  A
C3854      C3855   1.400       .  A
C3854      H3863   1.085       .  S
C3855      C3856   1.413       .  A
C3855      S3859   1.804       .  S
C3856      C3857   1.402       .  A
C3857      C3858   1.398       .  A
C3857      H3864   1.084       .  S
C3858      S3860   1.804       .  S
S3859      H3862   1.404       .  S
S3860      H3861   1.407       .  S
C3865      C3866   1.412       .  A
C3865      C3870   1.406       .  A
C3866      H3875   1.083       .  S
C3867      C3868   1.418       .  A
C3867      S3871   1.799       .  S
C3868      C3869   1.405       .  A
C3869      H3876   1.084       .  S
C3870      S3872   1.800       .  S
S3871      H3874   1.402       .  S
S3872      H3873   1.406       .  S
C3877      C3878   1.404       .  A
C3877      C3882   1.419       .  A
C3878      C3879   1.382   1_655  A
C3878      H3887   1.083       .  S
C3879      S3883   1.798       .  S
C3880      C3881   1.408       .  A
C3881      H3888   1.084       .  S
C3882      S3884   1.799       .  S
S3884      H3885   1.408       .  S
C3889      C4711   1.434       .  S
C3889      C3890   1.399       .  A
C3889      C3894   1.411       .  A
C3890      C3891   1.394       .  A
C3890      H3899   1.083       .  S
C3891      C3892   1.405       .  A
C3891      S3895   1.804       .  S
C3892      C3893   1.397       .  A
C3893      C3894   1.382       .  A
C3893      H3900   1.085       .  S
C3894      S3896   1.809       .  S
S3895      H3898   1.406       .  S
S3896      H3897   1.403       .  S
C3901      C3902   1.406       .  A
C3901      C3906   1.428       .  A
C3902      C3903   1.397       .  A
C3902      H3911   1.083       .  S
C3903      C3904   1.411       .  A
C3903      S3907   1.805       .  S
C3904      C3905   1.393       .  A
C3905      C3906   1.398       .  A
C3905      H3912   1.083       .  S
C3906      S3908   1.812       .  S
S3907      H3910   1.407       .  S
S3908      H3909   1.407       .  S
C3913      C4829   1.463       .  S
C3913      C3914   1.409       .  A
C3913      C3918   1.408       .  A
C3914      C3915   1.386       .  A
C3914      H3923   1.082       .  S
C3915      C3916   1.398       .  A
C3915      S3919   1.801       .  S
C3916      C3917   1.402       .  A
C3917      C3918   1.393       .  A
C3917      H3924   1.080       .  S
C3918      S3920   1.802       .  S
S3919      H3922   1.405       .  S
S3920      H5241   1.407       .  S
H3921      S5240   1.407       .  S
C3925      C3926   1.402       .  A
C3925      C3930   1.403       .  A
C3926      C3927   1.391       .  A
C3926      H3935   1.085       .  S
C3927      C3928   1.418       .  A
C3927      S3931   1.803       .  S
C3928      C3929   1.414       .  A
C3929      C3930   1.391       .  A
C3929      H3936   1.083       .  S
C3930      S3932   1.804       .  S
S3931      H3934   1.406       .  S
S3932      H3933   1.407       .  S
C3937      C3938   1.411       .  A
C3937      C3942   1.422       .  A
C3938      H3947   1.083       .  S
C3939      C3940   1.421       .  A
C3939      S3943   1.802       .  S
C3940      C3941   1.393       .  A
C3941      H3948   1.081       .  S
C3942      S3944   1.805       .  S
S3943      H3946   1.404       .  S
S3944      H3945   1.399       .  S
C3949      C3950   1.406       .  A
C3949      C3954   1.410       .  A
C3950      C3951   1.401       .  A
C3950      H3959   1.084       .  S
C3951      C3952   1.410       .  A
C3951      S3955   1.805       .  S
C3952      C3953   1.404       .  A
C3953      C3954   1.401       .  A
C3953      H3960   1.084       .  S
C3954      S3956   1.799       .  S
S3955      H3958   1.403       .  S
S3956      H3957   1.406       .  S
O3961     Zr3973   2.465       .  S
O3961      C3963   1.292       .  A
O3962     Zr3999   2.403       .  S
O3962      C3963   1.282       .  A
C3963      C4612   1.471       .  S
O3964     Zr3976   2.372       .  S
O3964      C3966   1.274       .  A
O3965     Zr4000   2.522       .  S
O3965      C3966   1.304       .  A
C3966      C4597   1.498       .  S
O3967     Zr3976   2.369       .  S
O3967      C3969   1.275       .  A
O3968     Zr3999   2.397       .  S
O3968      C3969   1.279       .  A
C3969      C4552   1.432       .  S
O3970     Zr3973   2.405       .  S
O3970      C3972   1.283       .  A
O3971     Zr4000   2.421       .  S
O3971      C3972   1.288       .  A
C3972      C4585   1.458       .  S
Zr3973     O3974   2.434       .  S
Zr3973     O3975   2.437       .  S
Zr3973     O3979   2.344       .  S
Zr3973     O3980   2.386       .  S
Zr3973     O4003   2.367       .  S
Zr3973     O4005   2.367       .  S
O3974      H4017   0.990       .  S
O3975      H4016   0.990       .  S
O3975      H4020   0.990       .  S
Zr3976     O3977   2.437       .  S
Zr3976     O3978   2.433       .  S
Zr3976     O3980   2.350       .  S
Zr3976     O3979   2.351       .  S
Zr3976     O4004   2.350       .  S
Zr3976     O4006   2.370       .  S
O3977      H4018   0.990       .  S
O3977      H4021   0.990       .  S
O3978      H4011   0.990       .  S
O3979     Zr3999   2.368       .  S
O3980     Zr4000   2.399       .  S
O3980      H4007   0.966       .  S
O3981     Zr3993   2.414       .  S
O3981      C3983   1.283       .  A
O3982     Zr4000   2.435       .  S
O3982      C3983   1.291       .  A
C3983      C4564   1.464       .  S
O3984     Zr3996   2.415       .  S
O3984      C3986   1.276       .  A
O3985     Zr3999   2.398       .  S
O3985      C3986   1.275       .  A
O3987     Zr3996   2.393       .  S
O3987      C3989   1.276       .  A
O3988     Zr4000   2.495       .  S
O3988      C3989   1.300       .  A
C3989      C4525   1.478       .  S
O3990     Zr3993   2.448       .  S
O3990      C3992   1.286       .  A
O3991     Zr3999   2.388       .  S
O3991      C3992   1.283       .  A
C3992      C4537   1.489       .  S
Zr3993     O3994   2.437       .  S
Zr3993     O3995   2.436       .  S
Zr3993     O4001   2.382       .  S
Zr3993     O4002   2.354       .  S
Zr3993     O4005   2.372       .  S
Zr3993     O4003   2.361       .  S
O3994      H4014   0.990       .  S
O3994      H4019   0.990       .  S
O3995      H4015   0.990       .  S
Zr3996     O3997   2.435   1_655  S
Zr3996     O3998   2.436       .  S
Zr3996     O4002   2.360       .  S
Zr3996     O4001   2.372       .  S
Zr3996     O4006   2.374       .  S
Zr3996     O4004   2.353       .  S
O3998      H4012   0.989       .  S
O3998      H4022   0.990       .  S
Zr3999     O4002   2.378       .  S
Zr3999     O4004   2.386       .  S
Zr3999     O4005   2.376       .  S
Zr4000     O4001   2.402       .  S
Zr4000     O4003   2.406       .  S
Zr4000     O4006   2.372       .  S
O4001      H4009   0.965       .  S
O4004      H4008   0.966       .  S
O4005      H4010   0.966       .  S
O4023     Zr4035   2.409       .  S
O4023      C4025   1.280       .  A
O4024     Zr4061   2.448       .  S
O4024      C4025   1.294       .  A
C4025      C4561   1.489       .  S
O4026     Zr4038   2.427       .  S
O4026      C4028   1.284       .  A
O4027     Zr4062   2.429       .  S
O4027      C4028   1.286       .  A
O4029     Zr4038   2.397       .  S
O4029      C4031   1.281       .  A
O4030     Zr4061   2.512       .  S
O4030      C4031   1.302       .  A
C4031      C4465   1.500       .  S
O4032     Zr4035   2.419       .  S
O4032      C4034   1.285       .  A
O4033     Zr4062   2.458       .  S
O4033      C4034   1.293       .  A
C4034      C4453   1.496       .  S
Zr4035     O4036   2.433       .  S
Zr4035     O4037   2.435       .  S
Zr4035     O4041   2.382       .  S
Zr4035     O4042   2.361       .  S
Zr4035     O4065   2.380       .  S
Zr4035     O4067   2.360       .  S
O4036      H4079   0.990       .  S
O4037      H4078   0.990       .  S
O4037      H4082   0.990       .  S
Zr4038     O4039   2.435   1_655  S
Zr4038     O4040   2.430       .  S
Zr4038     O4042   2.335       .  S
Zr4038     O4041   2.373       .  S
Zr4038     O4066   2.373       .  S
Zr4038     O4068   2.350       .  S
O4039      H4080   0.990       .  S
O4040      H4073   0.991       .  S
O4041     Zr4061   2.396       .  S
O4042     Zr4062   2.379       .  S
O4042      H4069   0.964       .  S
O4043     Zr4055   2.495       .  S
O4043      C4045   1.297       .  A
O4044     Zr4062   2.445       .  S
O4044      C4045   1.291       .  A
C4045      C4477   1.511       .  S
O4046     Zr4058   2.403       .  S
O4046      C4048   1.274       .  A
O4047     Zr4061   2.480       .  S
O4047      C4048   1.291       .  A
C4048      C4492   1.497       .  S
O4049     Zr4058   2.354       .  S
O4049      C4051   1.272       .  A
O4050     Zr4062   2.415       .  S
O4050      C4051   1.284       .  A
O4052     Zr4055   2.442       .  S
O4052      C4054   1.290       .  A
O4053     Zr4061   2.435       .  S
O4053      C4054   1.290       .  A
C4054      C4513   1.468       .  S
Zr4055     O4056   2.436       .  S
Zr4055     O4057   2.434       .  S
Zr4055     O4063   2.355       .  S
Zr4055     O4064   2.383       .  S
Zr4055     O4067   2.379       .  S
Zr4055     O4065   2.378       .  S
O4056      H4076   0.990       .  S
O4056      H4081   0.990       .  S
O4057      H4077   0.990       .  S
Zr4058     O4060   2.437       .  S
Zr4058     O4064   2.338       .  S
Zr4058     O4063   2.361       .  S
Zr4058     O4068   2.364       .  S
Zr4058     O4066   2.346       .  S
O4060      H4074   0.990       .  S
O4060      H4084   0.990       .  S
Zr4061     O4064   2.402       .  S
Zr4061     O4066   2.381       .  S
Zr4061     O4067   2.418       .  S
Zr4062     O4063   2.398       .  S
Zr4062     O4065   2.386       .  S
Zr4062     O4068   2.379       .  S
O4063      H4071   0.965       .  S
O4066      H4070   0.960       .  S
O4067      H4072   0.965       .  S
O4085     Zr4097   2.411       .  S
O4085      C4087   1.281       .  A
O4086     Zr4123   2.433       .  S
O4086      C4087   1.287       .  A
O4088     Zr4100   2.394       .  S
O4088      C4090   1.280       .  A
O4089     Zr4124   2.495       .  S
O4089      C4090   1.301       .  A
C4090      C4420   1.486       .  S
O4091     Zr4100   2.446       .  S
O4091      C4093   1.288       .  A
O4092     Zr4123   2.402       .  S
O4092      C4093   1.282       .  A
C4093      C4540   1.483       .  S
O4094     Zr4097   2.382       .  S
O4094      C4096   1.277       .  A
O4095     Zr4124   2.504       .  S
O4095      C4096   1.301       .  A
C4096      C4528   1.489       .  S
Zr4097     O4099   2.435       .  S
Zr4097     O4103   2.356       .  S
Zr4097     O4104   2.368       .  S
Zr4097     O4127   2.371       .  S
Zr4097     O4129   2.354       .  S
O4098      H4141   0.990       .  S
O4099      H4140   0.990       .  S
O4099      H4144   0.990       .  S
Zr4100     O4101   2.438       .  S
Zr4100     O4102   2.436       .  S
Zr4100     O4104   2.377       .  S
Zr4100     O4103   2.350       .  S
Zr4100     O4128   2.369       .  S
Zr4100     O4130   2.371       .  S
O4101      H4142   0.990       .  S
O4101      H4145   0.990       .  S
O4102      H4135   0.990       .  S
O4103     Zr4123   2.372       .  S
O4104     Zr4124   2.405       .  S
O4104      H4131   0.966       .  S
O4105     Zr4117   2.385       .  S
O4105      C4107   1.278       .  A
O4106     Zr4124   2.526       .  S
O4106      C4107   1.306       .  A
C4107      C4381   1.504       .  S
O4108     Zr4120   2.464       .  S
O4108      C4110   1.293       .  A
O4109     Zr4123   2.430       .  S
O4109      C4110   1.287       .  A
C4110      C4393   1.494       .  S
O4111     Zr4120   2.440       .  S
O4111      C4113   1.290       .  A
O4112     Zr4124   2.439       .  S
O4112      C4113   1.290       .  A
C4113      C4429   1.480       .  S
O4114     Zr4117   2.444       .  S
O4114      C4116   1.289       .  A
O4115     Zr4123   2.383       .  S
O4115      C4116   1.278       .  A
Zr4117     O4118   2.436   1_565  S
Zr4117     O4119   2.434       .  S
Zr4117     O4125   2.374       .  S
Zr4117     O4126   2.348       .  S
Zr4117     O4129   2.341       .  S
Zr4117     O4127   2.385       .  S
O4118      H4138   0.990   1_545  S
O4119      H4139   0.990       .  S
Zr4120     O4121   2.433       .  S
Zr4120     O4122   2.434       .  S
Zr4120     O4126   2.359       .  S
Zr4120     O4125   2.384       .  S
Zr4120     O4130   2.361       .  S
Zr4120     O4128   2.375       .  S
O4121      H4137   0.990       .  S
O4122      H4136   0.990       .  S
O4122      H4146   0.990       .  S
Zr4123     O4126   2.373       .  S
Zr4123     O4128   2.378       .  S
Zr4123     O4129   2.371       .  S
Zr4124     O4125   2.411       .  S
Zr4124     O4127   2.389       .  S
Zr4124     O4130   2.404       .  S
O4125      H4133   0.966       .  S
O4128      H4132   0.966       .  S
O4129      H4134   0.963       .  S
O4147     Zr4159   2.411       .  S
O4147      C4149   1.282       .  A
O4148     Zr4185   2.486       .  S
O4148      C4149   1.298       .  A
C4149      C4360   1.487       .  S
O4150     Zr4162   2.418       .  S
O4150      C4152   1.284       .  A
O4151     Zr4186   2.463       .  S
O4151      C4152   1.294       .  A
C4152      C4369   1.498       .  S
O4153     Zr4162   2.415       .  S
O4153      C4155   1.284       .  A
O4154     Zr4185   2.412       .  S
O4154      C4155   1.284       .  A
C4155      C4588   1.482       .  S
O4156     Zr4159   2.433       .  S
O4156      C4158   1.286       .  A
O4157     Zr4186   2.425       .  S
O4157      C4158   1.287       .  A
C4158      C4504   1.466       .  S
Zr4159     O4160   2.434       .  S
Zr4159     O4161   2.436       .  S
Zr4159     O4165   2.370       .  S
Zr4159     O4166   2.347       .  S
Zr4159     O4189   2.358       .  S
Zr4159     O4191   2.373       .  S
O4160      H4203   0.990       .  S
O4161      H4202   0.990       .  S
O4161      H4206   0.990       .  S
Zr4162     O4163   2.437       .  S
Zr4162     O4164   2.435       .  S
Zr4162     O4166   2.363       .  S
Zr4162     O4165   2.376       .  S
Zr4162     O4190   2.359       .  S
Zr4162     O4192   2.379       .  S
O4163      H4204   0.990       .  S
O4163      H4207   0.990       .  S
O4164      H4197   0.990       .  S
O4165     Zr4185   2.383       .  S
O4166     Zr4186   2.385       .  S
O4166      H4193   0.965       .  S
O4167     Zr4179   2.402       .  S
O4167      C4169   1.275       .  A
O4168     Zr4186   2.424       .  S
O4168      C4169   1.283       .  A
O4170     Zr4182   2.451       .  S
O4170      C4172   1.291       .  A
O4171     Zr4185   2.425       .  S
O4171      C4172   1.288       .  A
C4172      C4516   1.469       .  S
O4173     Zr4182   2.481       .  S
O4173      C4175   1.296       .  A
O4174     Zr4186   2.459       .  S
O4174      C4175   1.294       .  A
C4175      C4384   1.499       .  S
O4176     Zr4179   2.419       .  S
O4176      C4178   1.274       .  A
O4177     Zr4185   2.448       .  S
O4177      C4178   1.285       .  A
C4178      C4396   1.476       .  S
Zr4179     O4181   2.436       .  S
Zr4179     O4187   2.376       .  S
Zr4179     O4188   2.354       .  S
Zr4179     O4191   2.371       .  S
Zr4179     O4189   2.368       .  S
O4180      H4200   0.990       .  S
O4180      H4205   0.989       .  S
O4181      H4201   0.990       .  S
Zr4182     O4183   2.433       .  S
Zr4182     O4184   2.434       .  S
Zr4182     O4188   2.378       .  S
Zr4182     O4187   2.358       .  S
Zr4182     O4192   2.379       .  S
Zr4182     O4190   2.371       .  S
O4183      H4199   0.990       .  S
O4184      H4198   0.990       .  S
O4184      H4208   0.990       .  S
Zr4185     O4188   2.396       .  S
Zr4185     O4190   2.404       .  S
Zr4185     O4191   2.387       .  S
Zr4186     O4187   2.400       .  S
Zr4186     O4189   2.388       .  S
Zr4186     O4192   2.388       .  S
O4187      H4195   0.964       .  S
O4190      H4194   0.965       .  S
O4191      H4196   0.966       .  S
O4209     Zr4221   2.488       .  S
O4209      C4211   1.295       .  A
O4210     Zr4247   2.424       .  S
O4210      C4211   1.292       .  A
C4211      C4468   1.516       .  S
O4212     Zr4224   2.392       .  S
O4212      C4214   1.272       .  A
O4213     Zr4248   2.473       .  S
O4213      C4214   1.292       .  A
C4214      C4456   1.469       .  S
O4215     Zr4224   2.426       .  S
O4215      C4217   1.280       .  A
O4216     Zr4247   2.440       .  S
O4216      C4217   1.284       .  A
O4218     Zr4221   2.491       .  S
O4218      C4220   1.299       .  A
O4219     Zr4248   2.409       .  S
O4219      C4220   1.284       .  A
C4220      C4417   1.486       .  S
Zr4221     O4222   2.433       .  S
Zr4221     O4223   2.434       .  S
Zr4221     O4227   2.369       .  S
Zr4221     O4228   2.376       .  S
Zr4221     O4251   2.372       .  S
Zr4221     O4253   2.395       .  S
O4222      H4265   0.990       .  S
O4223      H4264   0.990       .  S
O4223      H4268   0.990       .  S
Zr4224     O4226   2.442       .  S
Zr4224     O4228   2.387       .  S
Zr4224     O4227   2.354       .  S
Zr4224     O4252   2.353       .  S
Zr4224     O4254   2.368       .  S
O4225      H4266   0.990       .  S
O4225      H4269   0.990       .  S
O4226      H4259   0.989       .  S
O4227     Zr4247   2.389       .  S
O4228     Zr4248   2.407       .  S
O4228      H4255   0.965       .  S
O4229     Zr4241   2.472       .  S
O4229      C4231   1.294       .  A
O4230     Zr4248   2.442       .  S
O4230      C4231   1.291       .  A
C4231      C4345   1.509       .  S
O4232     Zr4244   2.370       .  S
O4232      C4234   1.275       .  A
O4233     Zr4247   2.450       .  S
O4233      C4234   1.291       .  A
C4234      C4408   1.463       .  S
O4235     Zr4244   2.371       .  S
O4235      C4237   1.274       .  A
O4236     Zr4248   2.466       .  S
O4236      C4237   1.292       .  A
C4237      C4372   1.472       .  S
O4238     Zr4241   2.498       .  S
O4238      C4240   1.298       .  A
O4239     Zr4247   2.450       .  S
O4239      C4240   1.293       .  A
C4240      C4357   1.516       .  S
Zr4241     O4242   2.436       .  S
Zr4241     O4243   2.434       .  S
Zr4241     O4249   2.390       .  S
Zr4241     O4250   2.363       .  S
Zr4241     O4253   2.386       .  S
Zr4241     O4251   2.380       .  S
O4242      H4262   0.990       .  S
O4242      H4267   0.990       .  S
O4243      H4263   0.990       .  S
Zr4244     O4245   2.434       .  S
Zr4244     O4246   2.437       .  S
Zr4244     O4250   2.351       .  S
Zr4244     O4249   2.355       .  S
Zr4244     O4254   2.359       .  S
Zr4244     O4252   2.356       .  S
O4245      H4261   0.990       .  S
O4246      H4260   0.990       .  S
O4246      H4270   0.990       .  S
Zr4247     O4250   2.377       .  S
Zr4247     O4252   2.379       .  S
Zr4247     O4253   2.406       .  S
Zr4248     O4249   2.398       .  S
Zr4248     O4251   2.407       .  S
Zr4248     O4254   2.372       .  S
O4249      H4257   0.966       .  S
O4252      H4256   0.964       .  S
O4253      H4258   0.966       .  S
O4271     Zr4283   2.461       .  S
O4271      C4273   1.292       .  A
O4272     Zr4309   2.443       .  S
O4272      C4273   1.290       .  A
C4273      C4489   1.488       .  S
O4274     Zr4286   2.431       .  S
O4274      C4276   1.281       .  A
O4275     Zr4310   2.481       .  S
O4275      C4276   1.293       .  A
C4276      C4348   1.500       .  S
O4277     Zr4286   2.441       .  S
O4277      C4279   1.287       .  A
O4278     Zr4309   2.439       .  S
O4278      C4279   1.289       .  A
C4279      C4609   1.479       .  S
O4280     Zr4283   2.435       .  S
O4280      C4282   1.289       .  A
O4281     Zr4310   2.446       .  S
O4281      C4282   1.292       .  A
C4282      C4432   1.477       .  S
Zr4283     O4284   2.434       .  S
Zr4283     O4285   2.435       .  S
Zr4283     O4289   2.378       .  S
Zr4283     O4290   2.373       .  S
Zr4283     O4313   2.379       .  S
Zr4283     O4315   2.363       .  S
O4284      H4327   0.990       .  S
O4285      H4326   0.990       .  S
O4285      H4330   0.990       .  S
Zr4286     O4287   2.440       .  S
Zr4286     O4288   2.435       .  S
Zr4286     O4290   2.367       .  S
Zr4286     O4289   2.371       .  S
Zr4286     O4314   2.372       .  S
Zr4286     O4316   2.376       .  S
O4287      H4328   0.989       .  S
O4287      H4331   0.990       .  S
O4288      H4321   0.990       .  S
O4289     Zr4309   2.382       .  S
O4290     Zr4310   2.417       .  S
O4290      H4317   0.965       .  S
O4291     Zr4303   2.391       .  S
O4291      C4293   1.277       .  A
O4292     Zr4310   2.518       .  S
O4292      C4293   1.305       .  A
C4293      C4480   1.491       .  S
O4294     Zr4306   2.436       .  S
O4294      C4296   1.286       .  A
O4295     Zr4309   2.404       .  S
O4295      C4296   1.282       .  A
C4296      C4441   1.454       .  S
O4297     Zr4306   2.436       .  S
O4297      C4299   1.277       .  A
O4298     Zr4310   2.480       .  S
O4298      C4299   1.293       .  A
C4299      C4600   1.488       .  S
O4300     Zr4303   2.429       .  S
O4300      C4302   1.285       .  A
O4301     Zr4309   2.429       .  S
O4301      C4302   1.287       .  A
Zr4303     O4304   2.438       .  S
Zr4303     O4305   2.434   1_565  S
Zr4303     O4311   2.379       .  S
Zr4303     O4312   2.355       .  S
Zr4303     O4315   2.353       .  S
Zr4303     O4313   2.372       .  S
O4304      H4324   0.990       .  S
O4304      H4329   0.990       .  S
O4305      H4325   0.990   1_545  S
Zr4306     O4307   2.434       .  S
Zr4306     O4308   2.438       .  S
Zr4306     O4312   2.361       .  S
Zr4306     O4311   2.376       .  S
Zr4306     O4316   2.367       .  S
Zr4306     O4314   2.367       .  S
O4307      H4323   0.990       .  S
O4308      H4322   0.990       .  S
O4308      H4332   0.990       .  S
Zr4309     O4312   2.380       .  S
Zr4309     O4314   2.395       .  S
Zr4309     O4315   2.382       .  S
Zr4310     O4311   2.403       .  S
Zr4310     O4313   2.401       .  S
Zr4310     O4316   2.408       .  S
O4311      H4319   0.966       .  S
O4314      H4318   0.965       .  S
O4315      H4320   0.966       .  S
C4333      C4334   1.409       .  A
C4333      C4338   1.418       .  A
C4334      C4335   1.404       .  A
C4334      H4343   1.083       .  S
C4335      C4336   1.411       .  A
C4335      S4339   1.790       .  S
C4336      C4337   1.399       .  A
C4337      C4338   1.390       .  A
C4337      H4344   1.081       .  S
C4338      S4340   1.803       .  S
C4345      C4346   1.416       .  A
C4345      C4350   1.418       .  A
C4346      C4347   1.416       .  A
C4346      H4355   1.083       .  S
C4347      C4348   1.415       .  A
C4347      S4351   1.800       .  S
C4348      C4349   1.405       .  A
C4349      C4350   1.396       .  A
C4349      H4356   1.081       .  S
C4350      S4352   1.803       .  S
S4351      H4354   1.405       .  S
S4352      H4353   1.408       .  S
C4357      C4358   1.414       .  A
C4357      C4362   1.418       .  A
C4358      C4359   1.423       .  A
C4358      H4367   1.083       .  S
C4359      C4360   1.419       .  A
C4359      S4363   1.801       .  S
C4360      C4361   1.393       .  A
C4361      C4362   1.391       .  A
C4361      H4368   1.086       .  S
C4362      S4364   1.776       .  S
S4363      H4366   1.404       .  S
S4364      H4365   1.404       .  S
C4369      C5030   1.419       .  A
C4369      C5034   1.416       .  A
C4370      C5029   1.419   1_554  A
C4370      C4371   1.404       .  A
C4370      H5039   1.083   1_554  S
C4371      C4372   1.405       .  A
C4371      S4375   1.802       .  S
C4372      C4373   1.406       .  A
C4373      C4374   1.395       .  A
C4373      H4380   1.085       .  S
C4374      C5029   1.416   1_554  A
C4374      S5036   1.800       .  S
S4375      H4378   1.404       .  S
S4376      C5034   1.800       .  S
S4376      H4377   1.395       .  S
H4379      C5030   1.083       .  S
C4381      C4382   1.414       .  A
C4381      C5046   1.414   1_554  A
C4383      C5044   1.412   1_554  A
C4383      S4387   1.805       .  S
C4384      C5043   1.412       .  A
C4385      C4386   1.417       .  A
C4385      H4392   1.084       .  S
C4386      C5041   1.414       .  A
C4386      S4388   1.798       .  S
S4387      H4390   1.401   1_554  S
S4388      H5049   1.406       .  S
H4389      S5048   1.406       .  S
C4393      C4394   1.408       .  A
C4394      C4395   1.407   1_565  A
C4394      H4403   1.084       .  S
C4395      S4399   1.804       .  S
C4396      C4397   1.398       .  A
C4397      C4398   1.397       .  A
C4397      H4404   1.085       .  S
C4398      S4400   1.793       .  S
S4399      H4402   1.406       .  S
S4400      H4401   1.407       .  S
C4405      C4406   1.407       .  A
C4405      C4410   1.405       .  A
C4406      C4407   1.399       .  A
C4407      C4408   1.408       .  A
C4407      S4411   1.801       .  S
C4408      C4409   1.406       .  A
C4409      C4410   1.384       .  A
C4409      H4416   1.085       .  S
C4410      S4412   1.806       .  S
S4411      H4414   1.406       .  S
S4412      H4413   1.407       .  S
C4417      C4418   1.410       .  A
C4417      C4422   1.409       .  A
C4418      C4419   1.411       .  A
C4418      H4427   1.083       .  S
C4419      C4420   1.413       .  A
C4419      S4423   1.801       .  S
C4420      C4421   1.409       .  A
C4421      C4422   1.397       .  A
C4421      H4428   1.083       .  S
C4422      S4424   1.805       .  S
S4423      H4426   1.405       .  S
S4424      H4425   1.407       .  S
C4429      C4430   1.406       .  A
C4429      C4434   1.411       .  A
C4430      C4431   1.409       .  A
C4430      H4439   1.084       .  S
C4431      C4432   1.415       .  A
C4431      S4435   1.802       .  S
C4432      C4433   1.402       .  A
C4433      C4434   1.394       .  A
C4433      H4440   1.084       .  S
C4434      S4436   1.808       .  S
S4435      H4438   1.400       .  S
S4436      H4437   1.407       .  S
C4441      C4442   1.398       .  A
C4441      C4446   1.407       .  A
C4442      C4443   1.393       .  A
C4442      H4451   1.085       .  S
C4443      C4444   1.413       .  A
C4444      C4445   1.403       .  A
C4445      C4446   1.396       .  A
C4445      H4452   1.083       .  S
C4446      S4448   1.802       .  S
S4447      H4450   1.397       .  S
S4448      H4449   1.405       .  S
C4453      C5114   1.419       .  A
C4453      C5118   1.415       .  A
C4454      C5113   1.419   1_554  A
C4454      H5123   1.083   1_554  S
C4455      C4456   1.405       .  A
C4455      S4459   1.806       .  S
C4456      C4457   1.405       .  A
C4457      H4464   1.082       .  S
C4458      C5113   1.415   1_554  A
C4458      S5120   1.801       .  S
S4459      H4462   1.403       .  S
S4460      C5118   1.801       .  S
S4460      H4461   1.406       .  S
H4463      C5114   1.083       .  S
C4465      C4466   1.409       .  A
C4465      C4470   1.416       .  A
C4466      C4467   1.425       .  A
C4466      H4475   1.083       .  S
C4467      S4471   1.796   1_655  S
C4468      C4469   1.403       .  A
C4469      H4476   1.082       .  S
C4470      S4472   1.802       .  S
S4472      H4473   1.398       .  S
C4477      C5138   1.408       .  A
C4478      C5137   1.408       .  A
C4478      H4487   1.084       .  S
C4479      C4480   1.422       .  A
C4480      C4481   1.404   1_554  A
C4481      C5142   1.406       .  A
C4481      H4488   1.085       .  S
C4482      C5141   1.406       .  A
C4482      S4484   1.797       .  S
S4484      H4485   1.408       .  S
C4489      C4494   1.409       .  A
C4490      C4491   1.407       .  A
C4490      H4499   1.084       .  S
C4491      C4492   1.417       .  A
C4491      S4495   1.798       .  S
C4493      C4494   1.408   1_545  A
C4493      H4500   1.083       .  S
C4494      S4496   1.807       .  S
S4495      H4498   1.406       .  S
S4496      H4497   1.407       .  S
C4501      C4502   1.402       .  A
C4501      C4506   1.413       .  A
C4502      C4503   1.395       .  A
C4502      H4511   1.084       .  S
C4503      C4504   1.409       .  A
C4503      S4507   1.805       .  S
C4504      C4505   1.403       .  A
C4505      C4506   1.401       .  A
C4505      H4512   1.083       .  S
C4506      S4508   1.808       .  S
S4507      H4510   1.404       .  S
C4513      C4514   1.402       .  A
C4513      C4518   1.411       .  A
C4514      C4515   1.400       .  A
C4514      H4523   1.085       .  S
C4515      C4516   1.413       .  A
C4515      S4519   1.804       .  S
C4516      C4517   1.402       .  A
C4517      C4518   1.398       .  A
C4517      H4524   1.084       .  S
C4518      S4520   1.804       .  S
S4519      H4522   1.404       .  S
S4520      H4521   1.407       .  S
C4525      C4526   1.412       .  A
C4525      C4530   1.406       .  A
C4526      H4535   1.083       .  S
C4527      C4528   1.418       .  A
C4527      S4531   1.799       .  S
C4528      C4529   1.405       .  A
C4529      H4536   1.084       .  S
C4530      S4532   1.800       .  S
S4531      H4534   1.402       .  S
S4532      H4533   1.406       .  S
C4537      C4538   1.404       .  A
C4537      C4542   1.419       .  A
C4538      C4539   1.382   1_655  A
C4538      H4547   1.083       .  S
C4539      S4543   1.798       .  S
C4540      C4541   1.408       .  A
C4541      H4548   1.084       .  S
C4542      S4544   1.799       .  S
S4544      H4545   1.408       .  S
C4549      C4550   1.399       .  A
C4549      C4554   1.411       .  A
C4550      C4551   1.394       .  A
C4550      H4559   1.083       .  S
C4551      C4552   1.405       .  A
C4551      S4555   1.804       .  S
C4552      C4553   1.397       .  A
C4553      C4554   1.382       .  A
C4553      H4560   1.086       .  S
C4554      S4556   1.809       .  S
S4555      H4558   1.406       .  S
S4556      H4557   1.403       .  S
C4561      C4562   1.406       .  A
C4561      C4566   1.428       .  A
C4562      C4563   1.397       .  A
C4562      H4571   1.083       .  S
C4563      C4564   1.411       .  A
C4563      S4567   1.805       .  S
C4564      C4565   1.393       .  A
C4565      C4566   1.398       .  A
C4565      H4572   1.083       .  S
C4566      S4568   1.812       .  S
S4567      H4570   1.407       .  S
S4568      H4569   1.407       .  S
C4573      C4574   1.409       .  A
C4573      C4578   1.408       .  A
C4574      C4575   1.386       .  A
C4574      H4583   1.082       .  S
C4575      C4576   1.398       .  A
C4575      S4579   1.801       .  S
C4576      C4577   1.402       .  A
C4577      C4578   1.393       .  A
C4577      H4584   1.080       .  S
C4578      S4580   1.802       .  S
S4579      H4582   1.405       .  S
C4585      C4586   1.402       .  A
C4585      C4590   1.403       .  A
C4586      C4587   1.391       .  A
C4586      H4595   1.085       .  S
C4587      C4588   1.418       .  A
C4587      S4591   1.803       .  S
C4588      C4589   1.414       .  A
C4589      C4590   1.391       .  A
C4589      H4596   1.083       .  S
C4590      S4592   1.804       .  S
S4591      H4594   1.406       .  S
S4592      H4593   1.407       .  S
C4597      C4598   1.411       .  A
C4597      C4602   1.422       .  A
C4598      C5259   1.422       .  A
C4598      H4607   1.083       .  S
C4599      C5258   1.422   1_554  A
C4599      C4600   1.421       .  A
C4599      S4603   1.802       .  S
C4600      C4601   1.393       .  A
C4601      C5262   1.392   1_554  A
C4601      H4608   1.081       .  S
C4602      C5261   1.392       .  A
C4602      S4604   1.805       .  S
S4603      H4606   1.404       .  S
S4604      H4605   1.399       .  S
C4609      C4610   1.406       .  A
C4609      C4614   1.410       .  A
C4610      C4611   1.401       .  A
C4610      H4619   1.084       .  S
C4611      C4612   1.410       .  A
C4611      S4615   1.805       .  S
C4612      C4613   1.404       .  A
C4613      C4614   1.401       .  A
C4613      H4620   1.084       .  S
C4614      S4616   1.799       .  S
S4615      H4618   1.403       .  S
S4616      H4617   1.406       .  S
O4621     Zr4633   2.465       .  S
O4621      C4623   1.292       .  A
O4622     Zr4659   2.403       .  S
O4622      C4623   1.282       .  A
C4623      C5272   1.471       .  S
O4624     Zr4636   2.372       .  S
O4624      C4626   1.274       .  A
O4625     Zr4660   2.522       .  S
O4625      C4626   1.304       .  A
C4626      C5257   1.498       .  S
O4627     Zr4636   2.369       .  S
O4627      C4629   1.275       .  A
O4628     Zr4659   2.397       .  S
O4628      C4629   1.279       .  A
C4629      C5212   1.432       .  S
O4630     Zr4633   2.405       .  S
O4630      C4632   1.283       .  A
O4631     Zr4660   2.421       .  S
O4631      C4632   1.288       .  A
C4632      C5245   1.458       .  S
Zr4633     O4634   2.434       .  S
Zr4633     O4635   2.437       .  S
Zr4633     O4639   2.344       .  S
Zr4633     O4640   2.386       .  S
Zr4633     O4663   2.367       .  S
Zr4633     O4665   2.367       .  S
O4634      H4677   0.990       .  S
O4635      H4676   0.990       .  S
O4635      H4680   0.990       .  S
Zr4636     O4637   2.437       .  S
Zr4636     O4638   2.433       .  S
Zr4636     O4640   2.350       .  S
Zr4636     O4639   2.351       .  S
Zr4636     O4664   2.350       .  S
Zr4636     O4666   2.370       .  S
O4637      H4678   0.990       .  S
O4637      H4681   0.990       .  S
O4638      H4671   0.990       .  S
O4639     Zr4659   2.368       .  S
O4640     Zr4660   2.399       .  S
O4640      H4667   0.966       .  S
O4641     Zr4653   2.414       .  S
O4641      C4643   1.283       .  A
O4642     Zr4660   2.435       .  S
O4642      C4643   1.291       .  A
C4643      C5224   1.464       .  S
O4644     Zr4656   2.415       .  S
O4644      C4646   1.276       .  A
O4645     Zr4659   2.398       .  S
O4645      C4646   1.275       .  A
O4647     Zr4656   2.393       .  S
O4647      C4649   1.276       .  A
O4648     Zr4660   2.495       .  S
O4648      C4649   1.300       .  A
C4649      C5185   1.478       .  S
O4650     Zr4653   2.448       .  S
O4650      C4652   1.286       .  A
O4651     Zr4659   2.388       .  S
O4651      C4652   1.283       .  A
C4652      C5197   1.489       .  S
Zr4653     O4654   2.437       .  S
Zr4653     O4655   2.436       .  S
Zr4653     O4661   2.382       .  S
Zr4653     O4662   2.354       .  S
Zr4653     O4665   2.372       .  S
Zr4653     O4663   2.361       .  S
O4654      H4674   0.990       .  S
O4654      H4679   0.990       .  S
O4655      H4675   0.990       .  S
Zr4656     O4657   2.435   1_655  S
Zr4656     O4658   2.436       .  S
Zr4656     O4662   2.360       .  S
Zr4656     O4661   2.372       .  S
Zr4656     O4666   2.374       .  S
Zr4656     O4664   2.353       .  S
O4658      H4672   0.989       .  S
O4658      H4682   0.990       .  S
Zr4659     O4662   2.378       .  S
Zr4659     O4664   2.386       .  S
Zr4659     O4665   2.376       .  S
Zr4660     O4661   2.402       .  S
Zr4660     O4663   2.406       .  S
Zr4660     O4666   2.372       .  S
O4661      H4669   0.965       .  S
O4664      H4668   0.966       .  S
O4665      H4670   0.966       .  S
O4683     Zr4695   2.409       .  S
O4683      C4685   1.280       .  A
O4684     Zr4721   2.448       .  S
O4684      C4685   1.294       .  A
C4685      C5221   1.489       .  S
O4686     Zr4698   2.427       .  S
O4686      C4688   1.284       .  A
O4687     Zr4722   2.429       .  S
O4687      C4688   1.286       .  A
O4689     Zr4698   2.397       .  S
O4689      C4691   1.281       .  A
O4690     Zr4721   2.512       .  S
O4690      C4691   1.302       .  A
C4691      C5125   1.500       .  S
O4692     Zr4695   2.419       .  S
O4692      C4694   1.285       .  A
O4693     Zr4722   2.458       .  S
O4693      C4694   1.293       .  A
C4694      C5113   1.496       .  S
Zr4695     O4696   2.433       .  S
Zr4695     O4697   2.435       .  S
Zr4695     O4701   2.382       .  S
Zr4695     O4702   2.361       .  S
Zr4695     O4725   2.380       .  S
Zr4695     O4727   2.360       .  S
O4696      H4739   0.990       .  S
O4697      H4738   0.990       .  S
O4697      H4742   0.990       .  S
Zr4698     O4699   2.435   1_655  S
Zr4698     O4700   2.430       .  S
Zr4698     O4702   2.335       .  S
Zr4698     O4701   2.373       .  S
Zr4698     O4726   2.373       .  S
Zr4698     O4728   2.350       .  S
O4699      H4740   0.990       .  S
O4700      H4733   0.991       .  S
O4701     Zr4721   2.396       .  S
O4702     Zr4722   2.379       .  S
O4702      H4729   0.964       .  S
O4703     Zr4715   2.495       .  S
O4703      C4705   1.297       .  A
O4704     Zr4722   2.445       .  S
O4704      C4705   1.291       .  A
C4705      C5137   1.511       .  S
O4706     Zr4718   2.403       .  S
O4706      C4708   1.274       .  A
O4707     Zr4721   2.480       .  S
O4707      C4708   1.291       .  A
C4708      C5152   1.497       .  S
O4709     Zr4718   2.354       .  S
O4709      C4711   1.272       .  A
O4710     Zr4722   2.415       .  S
O4710      C4711   1.284       .  A
O4712     Zr4715   2.442       .  S
O4712      C4714   1.290       .  A
O4713     Zr4721   2.435       .  S
O4713      C4714   1.290       .  A
C4714      C5173   1.468       .  S
Zr4715     O4716   2.436       .  S
Zr4715     O4717   2.434       .  S
Zr4715     O4723   2.355       .  S
Zr4715     O4724   2.383       .  S
Zr4715     O4727   2.379       .  S
Zr4715     O4725   2.378       .  S
O4716      H4736   0.990       .  S
O4716      H4741   0.990       .  S
O4717      H4737   0.990       .  S
Zr4718     O4720   2.437       .  S
Zr4718     O4724   2.338       .  S
Zr4718     O4723   2.361       .  S
Zr4718     O4728   2.364       .  S
Zr4718     O4726   2.346       .  S
O4720      H4734   0.990       .  S
O4720      H4744   0.990       .  S
Zr4721     O4724   2.402       .  S
Zr4721     O4726   2.381       .  S
Zr4721     O4727   2.418       .  S
Zr4722     O4723   2.398       .  S
Zr4722     O4725   2.386       .  S
Zr4722     O4728   2.379       .  S
O4723      H4731   0.965       .  S
O4726      H4730   0.960       .  S
O4727      H4732   0.965       .  S
O4745     Zr4757   2.411       .  S
O4745      C4747   1.281       .  A
O4746     Zr4783   2.433       .  S
O4746      C4747   1.287       .  A
O4748     Zr4760   2.394       .  S
O4748      C4750   1.280       .  A
O4749     Zr4784   2.495       .  S
O4749      C4750   1.301       .  A
C4750      C5080   1.486       .  S
O4751     Zr4760   2.446       .  S
O4751      C4753   1.288       .  A
O4752     Zr4783   2.402       .  S
O4752      C4753   1.282       .  A
C4753      C5200   1.483       .  S
O4754     Zr4757   2.382       .  S
O4754      C4756   1.277       .  A
O4755     Zr4784   2.504       .  S
O4755      C4756   1.301       .  A
C4756      C5188   1.489       .  S
Zr4757     O4759   2.435       .  S
Zr4757     O4763   2.356       .  S
Zr4757     O4764   2.368       .  S
Zr4757     O4787   2.371       .  S
Zr4757     O4789   2.354       .  S
O4758      H4801   0.990       .  S
O4759      H4800   0.990       .  S
O4759      H4804   0.990       .  S
Zr4760     O4761   2.438       .  S
Zr4760     O4762   2.436       .  S
Zr4760     O4764   2.377       .  S
Zr4760     O4763   2.350       .  S
Zr4760     O4788   2.369       .  S
Zr4760     O4790   2.371       .  S
O4761      H4802   0.990       .  S
O4761      H4805   0.990       .  S
O4762      H4795   0.990       .  S
O4763     Zr4783   2.372       .  S
O4764     Zr4784   2.405       .  S
O4764      H4791   0.966       .  S
O4765     Zr4777   2.385       .  S
O4765      C4767   1.278       .  A
O4766     Zr4784   2.526       .  S
O4766      C4767   1.306       .  A
C4767      C5041   1.504       .  S
O4768     Zr4780   2.464       .  S
O4768      C4770   1.293       .  A
O4769     Zr4783   2.430       .  S
O4769      C4770   1.287       .  A
C4770      C5053   1.494       .  S
O4771     Zr4780   2.440       .  S
O4771      C4773   1.290       .  A
O4772     Zr4784   2.439       .  S
O4772      C4773   1.290       .  A
C4773      C5089   1.480       .  S
O4774     Zr4777   2.444       .  S
O4774      C4776   1.289       .  A
O4775     Zr4783   2.383       .  S
O4775      C4776   1.278       .  A
Zr4777     O4778   2.436   1_565  S
Zr4777     O4779   2.434       .  S
Zr4777     O4785   2.374       .  S
Zr4777     O4786   2.348       .  S
Zr4777     O4789   2.341       .  S
Zr4777     O4787   2.385       .  S
O4778      H4798   0.990   1_545  S
O4779      H4799   0.990       .  S
Zr4780     O4781   2.433       .  S
Zr4780     O4782   2.434       .  S
Zr4780     O4786   2.359       .  S
Zr4780     O4785   2.384       .  S
Zr4780     O4790   2.361       .  S
Zr4780     O4788   2.375       .  S
O4781      H4797   0.990       .  S
O4782      H4796   0.990       .  S
O4782      H4806   0.990       .  S
Zr4783     O4786   2.373       .  S
Zr4783     O4788   2.378       .  S
Zr4783     O4789   2.371       .  S
Zr4784     O4785   2.411       .  S
Zr4784     O4787   2.389       .  S
Zr4784     O4790   2.404       .  S
O4785      H4793   0.966       .  S
O4788      H4792   0.966       .  S
O4789      H4794   0.963       .  S
O4807     Zr4819   2.411       .  S
O4807      C4809   1.282       .  A
O4808     Zr4845   2.486       .  S
O4808      C4809   1.298       .  A
C4809      C5020   1.487       .  S
O4810     Zr4822   2.418       .  S
O4810      C4812   1.284       .  A
O4811     Zr4846   2.463       .  S
O4811      C4812   1.294       .  A
C4812      C5029   1.498       .  S
O4813     Zr4822   2.415       .  S
O4813      C4815   1.284       .  A
O4814     Zr4845   2.412       .  S
O4814      C4815   1.284       .  A
C4815      C5248   1.482       .  S
O4816     Zr4819   2.433       .  S
O4816      C4818   1.286       .  A
O4817     Zr4846   2.425       .  S
O4817      C4818   1.287       .  A
C4818      C5164   1.466       .  S
Zr4819     O4820   2.434       .  S
Zr4819     O4821   2.436       .  S
Zr4819     O4825   2.370       .  S
Zr4819     O4826   2.347       .  S
Zr4819     O4849   2.358       .  S
Zr4819     O4851   2.373       .  S
O4820      H4863   0.990       .  S
O4821      H4862   0.990       .  S
O4821      H4866   0.990       .  S
Zr4822     O4823   2.437       .  S
Zr4822     O4824   2.435       .  S
Zr4822     O4826   2.363       .  S
Zr4822     O4825   2.376       .  S
Zr4822     O4850   2.359       .  S
Zr4822     O4852   2.379       .  S
O4823      H4864   0.990       .  S
O4823      H4867   0.990       .  S
O4824      H4857   0.990       .  S
O4825     Zr4845   2.383       .  S
O4826     Zr4846   2.385       .  S
O4826      H4853   0.965       .  S
O4827     Zr4839   2.402       .  S
O4827      C4829   1.275       .  A
O4828     Zr4846   2.424       .  S
O4828      C4829   1.283       .  A
O4830     Zr4842   2.451       .  S
O4830      C4832   1.291       .  A
O4831     Zr4845   2.425       .  S
O4831      C4832   1.288       .  A
C4832      C5176   1.469       .  S
O4833     Zr4842   2.481       .  S
O4833      C4835   1.296       .  A
O4834     Zr4846   2.459       .  S
O4834      C4835   1.294       .  A
C4835      C5044   1.499       .  S
O4836     Zr4839   2.419       .  S
O4836      C4838   1.274       .  A
O4837     Zr4845   2.448       .  S
O4837      C4838   1.285       .  A
C4838      C5056   1.476       .  S
Zr4839     O4841   2.436       .  S
Zr4839     O4847   2.376       .  S
Zr4839     O4848   2.354       .  S
Zr4839     O4851   2.371       .  S
Zr4839     O4849   2.368       .  S
O4840      H4860   0.990       .  S
O4840      H4865   0.989       .  S
O4841      H4861   0.990       .  S
Zr4842     O4843   2.433       .  S
Zr4842     O4844   2.434       .  S
Zr4842     O4848   2.378       .  S
Zr4842     O4847   2.358       .  S
Zr4842     O4852   2.379       .  S
Zr4842     O4850   2.371       .  S
O4843      H4859   0.990       .  S
O4844      H4858   0.990       .  S
O4844      H4868   0.990       .  S
Zr4845     O4848   2.396       .  S
Zr4845     O4850   2.404       .  S
Zr4845     O4851   2.387       .  S
Zr4846     O4847   2.400       .  S
Zr4846     O4849   2.388       .  S
Zr4846     O4852   2.388       .  S
O4847      H4855   0.964       .  S
O4850      H4854   0.965       .  S
O4851      H4856   0.966       .  S
O4869     Zr4881   2.488       .  S
O4869      C4871   1.295       .  A
O4870     Zr4907   2.424       .  S
O4870      C4871   1.292       .  A
C4871      C5128   1.516       .  S
O4872     Zr4884   2.392       .  S
O4872      C4874   1.272       .  A
O4873     Zr4908   2.473       .  S
O4873      C4874   1.292       .  A
C4874      C5116   1.469       .  S
O4875     Zr4884   2.426       .  S
O4875      C4877   1.280       .  A
O4876     Zr4907   2.440       .  S
O4876      C4877   1.284       .  A
O4878     Zr4881   2.491       .  S
O4878      C4880   1.299       .  A
O4879     Zr4908   2.409       .  S
O4879      C4880   1.284       .  A
C4880      C5077   1.486       .  S
Zr4881     O4882   2.433       .  S
Zr4881     O4883   2.434       .  S
Zr4881     O4887   2.369       .  S
Zr4881     O4888   2.376       .  S
Zr4881     O4911   2.372       .  S
Zr4881     O4913   2.395       .  S
O4882      H4925   0.990       .  S
O4883      H4924   0.990       .  S
O4883      H4928   0.990       .  S
Zr4884     O4886   2.442       .  S
Zr4884     O4888   2.387       .  S
Zr4884     O4887   2.354       .  S
Zr4884     O4912   2.353       .  S
Zr4884     O4914   2.368       .  S
O4885      H4926   0.990       .  S
O4885      H4929   0.990       .  S
O4886      H4919   0.989       .  S
O4887     Zr4907   2.389       .  S
O4888     Zr4908   2.407       .  S
O4888      H4915   0.965       .  S
O4889     Zr4901   2.472       .  S
O4889      C4891   1.294       .  A
O4890     Zr4908   2.442       .  S
O4890      C4891   1.291       .  A
C4891      C5005   1.509       .  S
O4892     Zr4904   2.370       .  S
O4892      C4894   1.275       .  A
O4893     Zr4907   2.450       .  S
O4893      C4894   1.291       .  A
C4894      C5068   1.463       .  S
O4895     Zr4904   2.371       .  S
O4895      C4897   1.274       .  A
O4896     Zr4908   2.466       .  S
O4896      C4897   1.292       .  A
C4897      C5032   1.472       .  S
O4898     Zr4901   2.498       .  S
O4898      C4900   1.298       .  A
O4899     Zr4907   2.450       .  S
O4899      C4900   1.293       .  A
C4900      C5017   1.516       .  S
Zr4901     O4902   2.436       .  S
Zr4901     O4903   2.434       .  S
Zr4901     O4909   2.390       .  S
Zr4901     O4910   2.363       .  S
Zr4901     O4913   2.386       .  S
Zr4901     O4911   2.380       .  S
O4902      H4922   0.990       .  S
O4902      H4927   0.990       .  S
O4903      H4923   0.990       .  S
Zr4904     O4905   2.434       .  S
Zr4904     O4906   2.437       .  S
Zr4904     O4910   2.351       .  S
Zr4904     O4909   2.355       .  S
Zr4904     O4914   2.359       .  S
Zr4904     O4912   2.356       .  S
O4905      H4921   0.990       .  S
O4906      H4920   0.990       .  S
O4906      H4930   0.990       .  S
Zr4907     O4910   2.377       .  S
Zr4907     O4912   2.379       .  S
Zr4907     O4913   2.406       .  S
Zr4908     O4909   2.398       .  S
Zr4908     O4911   2.407       .  S
Zr4908     O4914   2.372       .  S
O4909      H4917   0.966       .  S
O4912      H4916   0.964       .  S
O4913      H4918   0.966       .  S
O4931     Zr4943   2.461       .  S
O4931      C4933   1.292       .  A
O4932     Zr4969   2.443       .  S
O4932      C4933   1.290       .  A
C4933      C5149   1.488       .  S
O4934     Zr4946   2.431       .  S
O4934      C4936   1.281       .  A
O4935     Zr4970   2.481       .  S
O4935      C4936   1.293       .  A
C4936      C5008   1.500       .  S
O4937     Zr4946   2.441       .  S
O4937      C4939   1.287       .  A
O4938     Zr4969   2.439       .  S
O4938      C4939   1.289       .  A
C4939      C5269   1.479       .  S
O4940     Zr4943   2.435       .  S
O4940      C4942   1.289       .  A
O4941     Zr4970   2.446       .  S
O4941      C4942   1.292       .  A
C4942      C5092   1.477       .  S
Zr4943     O4944   2.434       .  S
Zr4943     O4945   2.435       .  S
Zr4943     O4949   2.378       .  S
Zr4943     O4950   2.373       .  S
Zr4943     O4973   2.379       .  S
Zr4943     O4975   2.363       .  S
O4944      H4987   0.990       .  S
O4945      H4986   0.990       .  S
O4945      H4990   0.990       .  S
Zr4946     O4947   2.440       .  S
Zr4946     O4948   2.435       .  S
Zr4946     O4950   2.367       .  S
Zr4946     O4949   2.371       .  S
Zr4946     O4974   2.372       .  S
Zr4946     O4976   2.376       .  S
O4947      H4988   0.989       .  S
O4947      H4991   0.990       .  S
O4948      H4981   0.990       .  S
O4949     Zr4969   2.382       .  S
O4950     Zr4970   2.417       .  S
O4950      H4977   0.965       .  S
O4951     Zr4963   2.391       .  S
O4951      C4953   1.277       .  A
O4952     Zr4970   2.518       .  S
O4952      C4953   1.305       .  A
C4953      C5140   1.491       .  S
O4954     Zr4966   2.436       .  S
O4954      C4956   1.286       .  A
O4955     Zr4969   2.404       .  S
O4955      C4956   1.282       .  A
C4956      C5101   1.454       .  S
O4957     Zr4966   2.436       .  S
O4957      C4959   1.277       .  A
O4958     Zr4970   2.480       .  S
O4958      C4959   1.293       .  A
C4959      C5260   1.488       .  S
O4960     Zr4963   2.429       .  S
O4960      C4962   1.285       .  A
O4961     Zr4969   2.429       .  S
O4961      C4962   1.287       .  A
Zr4963     O4964   2.438       .  S
Zr4963     O4965   2.434   1_565  S
Zr4963     O4971   2.379       .  S
Zr4963     O4972   2.355       .  S
Zr4963     O4975   2.353       .  S
Zr4963     O4973   2.372       .  S
O4964      H4984   0.990       .  S
O4964      H4989   0.990       .  S
O4965      H4985   0.990   1_545  S
Zr4966     O4967   2.434       .  S
Zr4966     O4968   2.438       .  S
Zr4966     O4972   2.361       .  S
Zr4966     O4971   2.376       .  S
Zr4966     O4976   2.367       .  S
Zr4966     O4974   2.367       .  S
O4967      H4983   0.990       .  S
O4968      H4982   0.990       .  S
O4968      H4992   0.990       .  S
Zr4969     O4972   2.380       .  S
Zr4969     O4974   2.395       .  S
Zr4969     O4975   2.382       .  S
Zr4970     O4971   2.403       .  S
Zr4970     O4973   2.401       .  S
Zr4970     O4976   2.408       .  S
O4971      H4979   0.966       .  S
O4974      H4978   0.965       .  S
O4975      H4980   0.966       .  S
C4993      C4994   1.409       .  A
C4993      C4998   1.418       .  A
C4994      C4995   1.404       .  A
C4994      H5003   1.083       .  S
C4995      C4996   1.411       .  A
C4995      S4999   1.790       .  S
C4996      C4997   1.399       .  A
C4997      C4998   1.390       .  A
C4997      H5004   1.081       .  S
C4998      S5000   1.803       .  S
C5005      C5006   1.416       .  A
C5005      C5010   1.418       .  A
C5006      C5007   1.416       .  A
C5006      H5015   1.083       .  S
C5007      C5008   1.415       .  A
C5007      S5011   1.800       .  S
C5008      C5009   1.405       .  A
C5009      C5010   1.396       .  A
C5009      H5016   1.081       .  S
C5010      S5012   1.803       .  S
S5011      H5014   1.405       .  S
S5012      H5013   1.408       .  S
C5017      C5018   1.414       .  A
C5017      C5022   1.418       .  A
C5018      C5019   1.423       .  A
C5018      H5027   1.083       .  S
C5019      C5020   1.419       .  A
C5019      S5023   1.801       .  S
C5020      C5021   1.393       .  A
C5021      C5022   1.391       .  A
C5021      H5028   1.086       .  S
C5022      S5024   1.776       .  S
S5023      H5026   1.404       .  S
S5024      H5025   1.404       .  S
C5030      C5031   1.404       .  A
C5031      C5032   1.405       .  A
C5031      S5035   1.802       .  S
C5032      C5033   1.406       .  A
C5033      C5034   1.395       .  A
C5033      H5040   1.085       .  S
S5035      H5038   1.404       .  S
S5036      H5037   1.395   1_554  S
C5041      C5042   1.414       .  A
C5043      S5047   1.805       .  S
C5045      C5046   1.417       .  A
C5045      H5052   1.084       .  S
C5046      S5048   1.798       .  S
S5047      H5050   1.401       .  S
C5053      C5054   1.408       .  A
C5054      C5055   1.407   1_565  A
C5054      H5063   1.084       .  S
C5055      S5059   1.804       .  S
C5056      C5057   1.398       .  A
C5057      C5058   1.397       .  A
C5057      H5064   1.085       .  S
C5058      S5060   1.793       .  S
S5059      H5062   1.406       .  S
S5060      H5061   1.407       .  S
C5065      C5066   1.407       .  A
C5065      C5070   1.405       .  A
C5066      C5067   1.399       .  A
C5067      C5068   1.408       .  A
C5067      S5071   1.801       .  S
C5068      C5069   1.406       .  A
C5069      C5070   1.384       .  A
C5069      H5076   1.085       .  S
C5070      S5072   1.806       .  S
S5071      H5074   1.406       .  S
S5072      H5073   1.407       .  S
C5077      C5078   1.410       .  A
C5077      C5082   1.409       .  A
C5078      C5079   1.411       .  A
C5078      H5087   1.083       .  S
C5079      C5080   1.413       .  A
C5079      S5083   1.801       .  S
C5080      C5081   1.409       .  A
C5081      C5082   1.397       .  A
C5081      H5088   1.083       .  S
C5082      S5084   1.805       .  S
S5083      H5086   1.405       .  S
S5084      H5085   1.407       .  S
C5089      C5090   1.406       .  A
C5089      C5094   1.411       .  A
C5090      C5091   1.409       .  A
C5090      H5099   1.084       .  S
C5091      C5092   1.415       .  A
C5091      S5095   1.802       .  S
C5092      C5093   1.402       .  A
C5093      C5094   1.394       .  A
C5093      H5100   1.084       .  S
C5094      S5096   1.808       .  S
S5095      H5098   1.400       .  S
S5096      H5097   1.407       .  S
C5101      C5102   1.398       .  A
C5101      C5106   1.407       .  A
C5102      C5103   1.393       .  A
C5102      H5111   1.085       .  S
C5103      C5104   1.413       .  A
C5104      C5105   1.403       .  A
C5105      C5106   1.396       .  A
C5105      H5112   1.083       .  S
C5106      S5108   1.802       .  S
S5107      H5110   1.397       .  S
S5108      H5109   1.405       .  S
C5115      C5116   1.405       .  A
C5115      S5119   1.806       .  S
C5116      C5117   1.405       .  A
C5117      H5124   1.082       .  S
S5119      H5122   1.403       .  S
S5120      H5121   1.406   1_554  S
C5125      C5126   1.409       .  A
C5125      C5130   1.416       .  A
C5126      C5127   1.425       .  A
C5126      H5135   1.083       .  S
C5127      S5131   1.796   1_655  S
C5128      C5129   1.403       .  A
C5129      H5136   1.082       .  S
C5130      S5132   1.802       .  S
S5132      H5133   1.398       .  S
C5138      H5147   1.084       .  S
C5139      C5140   1.422       .  A
C5140      C5141   1.404       .  A
C5141      H5148   1.085       .  S
C5142      S5144   1.797       .  S
S5144      H5145   1.408       .  S
C5149      C5154   1.409       .  A
C5150      C5151   1.407       .  A
C5150      H5159   1.084       .  S
C5151      C5152   1.417       .  A
C5151      S5155   1.798       .  S
C5153      C5154   1.408   1_545  A
C5153      H5160   1.083       .  S
C5154      S5156   1.807       .  S
S5155      H5158   1.406       .  S
S5156      H5157   1.407       .  S
C5161      C5162   1.402       .  A
C5161      C5166   1.413       .  A
C5162      C5163   1.395       .  A
C5162      H5171   1.084       .  S
C5163      C5164   1.409       .  A
C5163      S5167   1.805       .  S
C5164      C5165   1.403       .  A
C5165      C5166   1.401       .  A
C5165      H5172   1.083       .  S
C5166      S5168   1.808       .  S
S5167      H5170   1.404       .  S
C5173      C5174   1.402       .  A
C5173      C5178   1.411       .  A
C5174      C5175   1.400       .  A
C5174      H5183   1.085       .  S
C5175      C5176   1.413       .  A
C5175      S5179   1.804       .  S
C5176      C5177   1.402       .  A
C5177      C5178   1.398       .  A
C5177      H5184   1.084       .  S
C5178      S5180   1.804       .  S
S5179      H5182   1.404       .  S
S5180      H5181   1.407       .  S
C5185      C5186   1.412       .  A
C5185      C5190   1.406       .  A
C5186      H5195   1.083       .  S
C5187      C5188   1.418       .  A
C5187      S5191   1.799       .  S
C5188      C5189   1.405       .  A
C5189      H5196   1.084       .  S
C5190      S5192   1.800       .  S
S5191      H5194   1.402       .  S
S5192      H5193   1.406       .  S
C5197      C5198   1.404       .  A
C5197      C5202   1.419       .  A
C5198      C5199   1.382   1_655  A
C5198      H5207   1.083       .  S
C5199      S5203   1.798       .  S
C5200      C5201   1.408       .  A
C5201      H5208   1.084       .  S
C5202      S5204   1.799       .  S
S5204      H5205   1.408       .  S
C5209      C5210   1.399       .  A
C5209      C5214   1.411       .  A
C5210      C5211   1.394       .  A
C5210      H5219   1.083       .  S
C5211      C5212   1.405       .  A
C5211      S5215   1.804       .  S
C5212      C5213   1.397       .  A
C5213      C5214   1.382       .  A
C5213      H5220   1.086       .  S
C5214      S5216   1.809       .  S
S5215      H5218   1.406       .  S
S5216      H5217   1.403       .  S
C5221      C5222   1.406       .  A
C5221      C5226   1.428       .  A
C5222      C5223   1.397       .  A
C5222      H5231   1.083       .  S
C5223      C5224   1.411       .  A
C5223      S5227   1.805       .  S
C5224      C5225   1.393       .  A
C5225      C5226   1.398       .  A
C5225      H5232   1.083       .  S
C5226      S5228   1.812       .  S
S5227      H5230   1.407       .  S
S5228      H5229   1.407       .  S
C5233      C5234   1.409       .  A
C5233      C5238   1.408       .  A
C5234      C5235   1.386       .  A
C5234      H5243   1.082       .  S
C5235      C5236   1.398       .  A
C5235      S5239   1.801       .  S
C5236      C5237   1.402       .  A
C5237      C5238   1.393       .  A
C5237      H5244   1.080       .  S
C5238      S5240   1.802       .  S
S5239      H5242   1.405       .  S
C5245      C5246   1.402       .  A
C5245      C5250   1.403       .  A
C5246      C5247   1.391       .  A
C5246      H5255   1.085       .  S
C5247      C5248   1.418       .  A
C5247      S5251   1.803       .  S
C5248      C5249   1.414       .  A
C5249      C5250   1.391       .  A
C5249      H5256   1.083       .  S
C5250      S5252   1.804       .  S
S5251      H5254   1.406       .  S
S5252      H5253   1.407       .  S
C5257      C5258   1.411       .  A
C5257      C5262   1.422       .  A
C5258      H5267   1.083       .  S
C5259      C5260   1.421       .  A
C5259      S5263   1.802       .  S
C5260      C5261   1.393       .  A
C5261      H5268   1.081       .  S
C5262      S5264   1.805       .  S
S5263      H5266   1.404       .  S
S5264      H5265   1.399       .  S
C5269      C5270   1.406       .  A
C5269      C5274   1.410       .  A
C5270      C5271   1.401       .  A
C5270      H5279   1.084       .  S
C5271      C5272   1.410       .  A
C5271      S5275   1.805       .  S
C5272      C5273   1.404       .  A
C5273      C5274   1.401       .  A
C5273      H5280   1.084       .  S
C5274      S5276   1.799       .  S
S5275      H5278   1.403       .  S
S5276      H5277   1.406       .  S
