geometry optimzed in LAMMPS
_audit_creation_date              2020-11-30 
_audit_creation_method            'lammps2cif' 
_symmetry_space_group_name_H-M    'P1' 
_symmetry_Int_Tables_number       1 
_symmetry_cell_setting            triclinic 
loop_ 
_symmetry_equiv_pos_as_xyz 
  x,y,z 
_cell_length_a                    28.702616478222378 
_cell_length_b                    28.301884855094738 
_cell_length_c                    32.357508344554105 
_cell_angle_alpha                 89.66699964455383 
_cell_angle_beta                  93.82981204162863 
_cell_angle_gamma                 89.72636843482515 
loop_ 
_atom_site_label 
_atom_site_type_symbol 
_atom_site_fract_x 
_atom_site_fract_y 
_atom_site_fract_z 
_atom_site_charge 
N1          N  0.25143023  0.75960436  0.31718767    -0.07300
N2          N  0.22779352  0.79978613  0.32008645    -0.59420
N3          N  0.31312821  0.68657521  0.26116292    -0.06980
N4          N  0.33047581  0.68387911  0.22450449    -0.61550
N5          N  0.26881963  0.67518586  0.25860672    -0.06580
N6          N  0.25497584  0.66481511  0.22000576    -0.59400
N7          N  0.29664745  0.76834952  0.32040813    -0.06260
N8          N  0.30444649  0.81393081  0.32494923    -0.61900
C9          C  0.26144824  0.83354155  0.32477164     0.94870
C10         C  0.29395821  0.66999884  0.19901187     0.94650
N11         N  0.40279472  0.62211290  0.34952831    -0.07490
N12         N  0.42887952  0.58599053  0.33882918    -0.60000
N13         N  0.38842905  0.73531376  0.37537446    -0.05610
N14         N  0.42108258  0.76817981  0.37687858    -0.61250
N15         N  0.39468263  0.70690874  0.40762189    -0.07520
N16         N  0.43117716  0.72036738  0.43153252    -0.60270
N17         N  0.39601782  0.65160287  0.31802733    -0.05250
N18         N  0.41654395  0.63639491  0.28551004    -0.61340
Mn19       Mn  0.34892505  0.71167569  0.31860037     1.18440
C20         C  0.43673957  0.59561796  0.29869601     0.96960
C21         C  0.44731028  0.75891199  0.41236956     0.97620
N22         N  0.20748176  0.60606287  0.31184680    -0.07540
N23         N  0.19802723  0.57487484  0.28171123    -0.63850
N24         N  0.19017650  0.66982612  0.39880887    -0.06340
N25         N  0.15485006  0.67536386  0.42242887    -0.64520
N26         N  0.18294365  0.69430012  0.36438174    -0.07040
N27         N  0.14271771  0.71718904  0.36410199    -0.64110
N28         N  0.21200210  0.58352657  0.34764125    -0.05940
N29         N  0.20556169  0.53799616  0.34299134    -0.64800
Mn30       Mn  0.22612276  0.68407676  0.31165411     1.10660
C31         C  0.19643302  0.53247790  0.30213260     0.98180
C32         C  0.12547946  0.70524382  0.40062424     0.98250
N33         N  0.32451251  0.64988247  0.46189364    -0.07050
N34         N  0.33861667  0.65967521  0.50070364    -0.62430
N35         N  0.29378759  0.55578571  0.40887800    -0.06370
N36         N  0.28600436  0.51248377  0.42207609    -0.59160
N37         N  0.33879458  0.56323659  0.40785842    -0.07680
N38         N  0.36238086  0.52500066  0.42003792    -0.61990
N39         N  0.27892564  0.64367381  0.45894508    -0.06670
N40         N  0.26134345  0.64893782  0.49508728    -0.59180
Mn41       Mn  0.36627461  0.63514623  0.40730613     1.20190
Mn42       Mn  0.24297724  0.61371493  0.40408302     1.10090
Cl43       Cl  0.29603890  0.66176062  0.36071726    -0.87150
C44         C  0.29853975  0.65949675  0.52089082     0.95180
C45         C  0.32907737  0.49324968  0.42797302     0.94980
N46         N  0.31536949  0.65231836  0.95975630    -0.07300
N47         N  0.33033549  0.66313348  0.99805486    -0.59420
N48         N  0.28798676  0.55602158  0.90927473    -0.06980
N49         N  0.28250779  0.51411110  0.92642723    -0.61550
N50         N  0.33258130  0.56544056  0.90754399    -0.06580
N51         N  0.35798841  0.52999402  0.92318478    -0.59400
N52         N  0.27012655  0.64398293  0.95799446    -0.06260
N53         N  0.25378356  0.64849469  0.99483804    -0.61900
C54         C  0.29140863  0.66096454  0.01961518     0.94870
C55         C  0.32650621  0.49779281  0.93415250     0.94650
N56         N  0.19910793  0.60186212  0.81095179    -0.07490
N57         N  0.18843320  0.57068858  0.78120014    -0.60000
N58         N  0.17950505  0.66572421  0.89666662    -0.05610
N59         N  0.14417687  0.67111027  0.92034952    -0.61250
N60         N  0.17134701  0.68901449  0.86167305    -0.07520
N61         N  0.13052045  0.71082156  0.86096498    -0.60270
N62         N  0.20514524  0.57963292  0.84683988    -0.05250
N63         N  0.19885714  0.53402510  0.84256319    -0.61340
Mn64       Mn  0.23480276  0.61170230  0.90322258     1.18440
C65         C  0.18802233  0.52854789  0.80190572     0.96960
C66         C  0.11411031  0.69981207  0.89797163     0.97620
N67         N  0.39427075  0.62556301  0.84757205    -0.07540
N68         N  0.42166515  0.59046072  0.83669208    -0.63850
N69         N  0.37513325  0.73883754  0.87280717    -0.06340
N70         N  0.40765039  0.77177204  0.87314732    -0.64520
N71         N  0.38263166  0.71080115  0.90514510    -0.07040
N72         N  0.41971281  0.72466145  0.92805946    -0.64110
N73         N  0.38692410  0.65517806  0.81630300    -0.05940
N74         N  0.40859773  0.64119772  0.78400126    -0.64800
Mn75       Mn  0.35703861  0.63818052  0.90535549     1.10660
C76         C  0.43035428  0.60092794  0.79674889     0.98180
C77         C  0.43512522  0.76277380  0.90795475     0.98250
N78         N  0.23703250  0.75577365  0.81395045    -0.07050
N79         N  0.21100357  0.79428486  0.81654095    -0.62430
N80         N  0.30266883  0.68490336  0.75988922    -0.06370
N81         N  0.32159978  0.68094618  0.72410294    -0.59160
N82         N  0.25882123  0.67182010  0.75665498    -0.07680
N83         N  0.24668456  0.65939582  0.71811526    -0.61990
N84         N  0.28166177  0.76701774  0.81806022    -0.06670
N85         N  0.28674206  0.81295104  0.82333984    -0.59180
Mn86       Mn  0.21509577  0.67983964  0.80935134     1.20190
Mn87       Mn  0.33674442  0.71279818  0.81661411     1.10090
Cl88       Cl  0.28583520  0.66092656  0.85887214    -0.86910
C89         C  0.24250198  0.82971357  0.82261648     0.95180
C90         C  0.28654785  0.66471357  0.69832506     0.94980
N91         N  0.85605034  0.76428755  0.94741230    -0.07300
N92         N  0.88562782  0.74758548  0.92106880    -0.59420
N93         N  0.79627976  0.74964546  0.03261202    -0.06980
N94         N  0.79242403  0.71551601  0.06013356    -0.61550
N95         N  0.77162060  0.73992319  0.99801321    -0.06580
N96         N  0.75001131  0.69923160  0.00143936    -0.59400
N97         N  0.87887095  0.77351837  0.98307383    -0.06260
N98         N  0.92336714  0.76356946  0.98198989    -0.61900
C99         C  0.92763084  0.74735041  0.94349144     0.94870
C100        C  0.76310817  0.68471935  0.04031248     0.94650
N101        N  0.80699406  0.88751935  0.08343904    -0.07490
N102        N  0.79714671  0.90317987  0.12033756    -0.60000
N103        N  0.90158660  0.86105132  0.03753085    -0.05610
N104        N  0.94486872  0.85678563  0.05374478    -0.61250
N105        N  0.89053000  0.90581847  0.03196564    -0.07520
N106        N  0.92612804  0.93279175  0.04402204    -0.60270
N107        N  0.81632691  0.84193151  0.08553077    -0.05250
N108        N  0.81273806  0.82560889  0.12335349    -0.61340
Mn109      Mn  0.84811003  0.80588539  0.03516377     1.18440
C110        C  0.80044300  0.86392557  0.14471219     0.96960
C111        C  0.96003371  0.90181668  0.05701753     0.97620
N112        N  0.70379298  0.80177041  0.93821603    -0.07540
N113        N  0.66579712  0.77536095  0.93772941    -0.63850
N114        N  0.77273356  0.86625556  0.88159944    -0.06340
N115        N  0.77623861  0.88328467  0.84391150    -0.64520
N116        N  0.78605362  0.82177780  0.88368884    -0.07040
N117        N  0.79825034  0.80731096  0.84712520    -0.64110
N118        N  0.69197718  0.84684856  0.93642953    -0.05940
N119        N  0.64628114  0.85212253  0.93431820    -0.64800
Mn120      Mn  0.77914377  0.78035797  0.94072035     1.10660
C121        C  0.63042845  0.80748426  0.93563698     0.98180
C122        C  0.79256759  0.84636376  0.82291891     0.98250
N123        N  0.82717906  0.96398984  0.96484499    -0.07050
N124        N  0.86095216  0.99196442  0.95336010    -0.62430
N125        N  0.71674745  0.94070777  0.98617036    -0.06370
N126        N  0.67896091  0.96766059  0.98569480    -0.59160
N127        N  0.74387506  0.94887480  0.01969211    -0.07680
N128        N  0.72463268  0.98042503  0.04301957    -0.61990
N129        N  0.79849085  0.95463585  0.93258500    -0.06670
N130        N  0.81176394  0.97561478  0.89907743    -0.59180
Mn131      Mn  0.81743377  0.92783851  0.02532222     1.20190
Mn132      Mn  0.74384825  0.90260217  0.93386686     1.10090
Cl133      Cl  0.79679453  0.85401961  0.98388065    -0.87150
C134        C  0.85062378  0.99895484  0.91204099     0.95180
C135        C  0.68390692  0.99142272  0.02189998     0.94980
N136        N  0.86560888  0.76557931  0.44668052    -0.07300
N137        N  0.89578978  0.75254519  0.41952224    -0.59420
N138        N  0.80115667  0.74492986  0.52878681    -0.06980
N139        N  0.79371958  0.70828567  0.55312689    -0.61550
N140        N  0.77843901  0.73950850  0.49256432    -0.06580
N141        N  0.75487421  0.69985320  0.49165073    -0.59400
N142        N  0.88751709  0.77073726  0.48346699    -0.06260
N143        N  0.93230840  0.76165039  0.48225363    -0.61900
C144        C  0.93729683  0.75053471  0.44244110     0.94870
C145        C  0.76413571  0.68064794  0.52951074     0.94650
N146        N  0.81371253  0.88104616  0.58616468    -0.07490
N147        N  0.80183944  0.89580616  0.62273288    -0.60000
N148        N  0.90965956  0.85341186  0.54319637    -0.05610
N149        N  0.95201544  0.84690886  0.56087912    -0.61250
N150        N  0.90044750  0.89874288  0.53877096    -0.07520
N151        N  0.93647364  0.92377829  0.55314164    -0.60270
N152        N  0.82145545  0.83504986  0.58727659    -0.05250
N153        N  0.81488154  0.81772093  0.62436420    -0.61340
Mn154      Mn  0.85481393  0.80002764  0.53644075     1.18440
C155        C  0.80198278  0.85579695  0.64591359     0.96960
C156        C  0.96878476  0.89110127  0.56595821     0.97620
N157        N  0.71488398  0.80590967  0.43534466    -0.07540
N158        N  0.67680423  0.77976805  0.43511163    -0.63850
N159        N  0.78668575  0.87203305  0.38317699    -0.06340
N160        N  0.78830089  0.88989719  0.34554799    -0.64520
N161        N  0.79876771  0.82722828  0.38370554    -0.07040
N162        N  0.80793758  0.81335087  0.34615429    -0.64110
N163        N  0.70360962  0.85109641  0.43523940    -0.05940
N164        N  0.65792054  0.85666457  0.43446220    -0.64800
Mn165      Mn  0.78945118  0.78331108  0.43858657     1.10660
C166        C  0.64161625  0.81197874  0.43482099     0.98180
C167        C  0.80178659  0.85302722  0.32281678     0.98250
N168        N  0.84192560  0.96342843  0.47220631    -0.07050
N169        N  0.87642555  0.99181634  0.46266111    -0.62430
N170        N  0.72948146  0.94218867  0.48924615    -0.06370
N171        N  0.69320609  0.97120222  0.48790369    -0.59160
N172        N  0.75575634  0.94857632  0.52359937    -0.07680
N173        N  0.73731851  0.98115887  0.54651123    -0.61990
N174        N  0.81358181  0.95660117  0.43915538    -0.06670
N175        N  0.82761970  0.97969911  0.40710022    -0.59180
Mn176      Mn  0.82840830  0.92412687  0.53062235     1.20190
Mn177      Mn  0.75734109  0.90595040  0.43644588     1.10090
Cl178      Cl  0.80731267  0.85331881  0.48568685    -0.87150
C179        C  0.86681807  0.00142994  0.42160877     0.95180
C180        C  0.69790086  0.99435872  0.52435396     0.94980
N181        N  0.57181164  0.46169289  0.13353140    -0.07300
N182        N  0.53827027  0.49044910  0.14455289    -0.59420
N183        N  0.68200824  0.43948427  0.11163690    -0.06980
N184        N  0.71631996  0.47062026  0.11322363    -0.61550
N185        N  0.65413595  0.44686768  0.07824315    -0.06580
N186        N  0.66943744  0.48217468  0.05641278    -0.59400
N187        N  0.60105429  0.45282239  0.16565804    -0.06260
N188        N  0.58859132  0.47497529  0.19868978    -0.61900
C189        C  0.54975270  0.49873454  0.18537712     0.94870
C190        C  0.70835892  0.49655268  0.07818761     0.94650
N191        N  0.69868995  0.30065684  0.16221119    -0.07490
N192        N  0.73753720  0.27495839  0.16378226    -0.60000
N193        N  0.62887279  0.36509239  0.21796674    -0.05610
N194        N  0.62534496  0.38291570  0.25516966    -0.61250
N195        N  0.61631060  0.32052125  0.21714431    -0.07520
N196        N  0.60446277  0.30696564  0.25421275    -0.60270
N197        N  0.70929146  0.34593785  0.16328934    -0.05250
N198        N  0.75481441  0.35202832  0.16629985    -0.61340
Mn199      Mn  0.65632797  0.40106533  0.16482894     1.18440
C200        C  0.77209174  0.30772566  0.16636939     0.96960
C201        C  0.60979524  0.34655353  0.27752952     0.97620
N202        N  0.59172914  0.38360152  0.01660733    -0.07540
N203        N  0.60207200  0.39872005  0.97952632    -0.63850
N204        N  0.49787163  0.35704135  0.06535675    -0.06340
N205        N  0.45335758  0.35264944  0.05285411    -0.64520
N206        N  0.50877925  0.40177999  0.06972067    -0.07040
N207        N  0.47194584  0.42869953  0.06071863    -0.64110
N208        N  0.58158121  0.33831034  0.01515471    -0.05940
N209        N  0.58431346  0.32185017  0.97743910    -0.64800
Mn210      Mn  0.58137732  0.42450564  0.07401630     1.10660
C211        C  0.59756793  0.35957959  0.95551952     0.98180
C212        C  0.43742827  0.39769989  0.05071266     0.98250
N213        N  0.54683529  0.26020616  0.15514293    -0.07050
N214        N  0.51868454  0.24012364  0.18109574    -0.62430
N215        N  0.60523141  0.24650643  0.06947973    -0.06370
N216        N  0.60801708  0.21137264  0.04309018    -0.59160
N217        N  0.63074476  0.23729287  0.10391005    -0.07680
N218        N  0.65157200  0.19590045  0.10138939    -0.61990
N219        N  0.52318415  0.26935872  0.11971366    -0.06670
N220        N  0.47959018  0.25612370  0.12054108    -0.59180
Mn221      Mn  0.62351366  0.27816048  0.16073141     1.20190
Mn222      Mn  0.55205395  0.30225339  0.06691811     1.10090
Cl223      Cl  0.60361237  0.35135638  0.11648457    -0.87150
C224        C  0.47682324  0.23756597  0.15853113     0.95180
C225        C  0.63773490  0.18043924  0.06308466     0.94980
N226        N  0.49243734  0.35028673  0.56354216    -0.07300
N227        N  0.44880922  0.34397033  0.54901809    -0.59420
N228        N  0.58572363  0.37913265  0.51558126    -0.06980
N229        N  0.59688425  0.39352343  0.47850993    -0.61550
N230        N  0.57791155  0.33333051  0.51512817    -0.06580
N231        N  0.58341398  0.31580077  0.47814425    -0.59400
N232        N  0.50142373  0.39554764  0.56746685    -0.06260
N233        N  0.46401038  0.42081462  0.55627643    -0.61900
C234        C  0.43118664  0.38829820  0.54557780     0.94870
C235        C  0.59574157  0.35342256  0.45554055     0.94650
N236        N  0.67328192  0.44065512  0.60949038    -0.07490
N237        N  0.70855775  0.47057784  0.60874613    -0.60000
N238        N  0.56185025  0.45929039  0.63103798    -0.05610
N239        N  0.52667487  0.48637044  0.64138398    -0.61250
N240        N  0.59090396  0.45185386  0.66366707    -0.07520
N241        N  0.57618483  0.47272540  0.69661734    -0.60270
N242        N  0.64509951  0.44619992  0.57610821    -0.05250
N243        N  0.66105080  0.47891006  0.55186835    -0.61340
Mn244      Mn  0.57320539  0.42118798  0.57207333     1.18440
C245        C  0.70079043  0.49387347  0.57218189     0.96960
C246        C  0.53643878  0.49438455  0.68246393     0.97620
N247        N  0.60422840  0.24410571  0.57202535    -0.07540
N248        N  0.61079790  0.20979942  0.54553932    -0.63850
N249        N  0.54382497  0.25924544  0.65712085    -0.06340
N250        N  0.51604503  0.24164865  0.68454751    -0.64520
N251        N  0.52003331  0.26527440  0.62120812    -0.07040
N252        N  0.47648184  0.25188504  0.62310816    -0.64110
N253        N  0.62897702  0.23634006  0.60713254    -0.05940
N254        N  0.65279337  0.19651558  0.60524270    -0.64800
Mn255      Mn  0.54868798  0.29750650  0.56743948     1.10660
C256        C  0.64171979  0.18089998  0.56648039     0.98180
C257        C  0.47431109  0.23688140  0.66239709     0.98250
N258        N  0.62337431  0.36737323  0.71759202    -0.07050
N259        N  0.62073388  0.38586312  0.75463402    -0.62430
N260        N  0.69408443  0.30327981  0.66425386    -0.06370
N261        N  0.73318722  0.27813768  0.66797457    -0.59160
N262        N  0.70398223  0.34870711  0.66263456    -0.07680
N263        N  0.74952735  0.35535708  0.66497236    -0.61990
N264        N  0.61097367  0.32278308  0.71762942    -0.06670
N265        N  0.59979967  0.30990185  0.75503906    -0.59180
Mn266      Mn  0.64906259  0.40264497  0.66349753     1.20190
Mn267      Mn  0.61968711  0.27897507  0.66264114     1.10090
Cl268      Cl  0.59792798  0.34996893  0.61626072    -0.87150
C269        C  0.60569528  0.34987551  0.77768924     0.95180
C270        C  0.76731328  0.31118053  0.66794033     0.94980
N271        N  0.20275824  0.10301493  0.29625514    -0.07300
N272        N  0.21732430  0.07365963  0.32682080    -0.59420
N273        N  0.22479520  0.16091726  0.20796906    -0.06980
N274        N  0.26163899  0.16273710  0.18551199    -0.61550
N275        N  0.23242343  0.18616070  0.24170501    -0.06580
N276        N  0.27408759  0.20568262  0.24272389    -0.59400
N277        N  0.19545509  0.07887810  0.26169978    -0.06260
N278        N  0.20417006  0.03369436  0.26771935    -0.61900
C279        C  0.21769866  0.03052993  0.30811123     0.94870
C280        C  0.29207840  0.19104389  0.20753383     0.94650
N281        N  0.08794408  0.14933056  0.14481299    -0.07490
N282        N  0.07284907  0.15877627  0.10618162    -0.60000
N283        N  0.11204755  0.05546612  0.19996127    -0.05610
N284        N  0.11554855  0.01281549  0.18396815    -0.61250
N285        N  0.06792387  0.06708622  0.20208347    -0.07520
N286        N  0.04094038  0.03243913  0.18805812    -0.60270
N287        N  0.13302455  0.13965360  0.14675709    -0.05250
N288        N  0.14920920  0.14202781  0.10959478    -0.61340
Mn289      Mn  0.16722204  0.10905737  0.20349722     1.18440
C290        C  0.11141834  0.15430111  0.08450940     0.96960
C291        C  0.07085012  0.99838734  0.17751994     0.97620
N292        N  0.16857929  0.25901892  0.28559161    -0.07540
N293        N  0.19603892  0.29642171  0.28416203    -0.63850
N294        N  0.10086872  0.19546356  0.34275482    -0.06340
N295        N  0.08188411  0.19438541  0.37874373    -0.64520
N296        N  0.14366672  0.17875996  0.34642643    -0.07040
N297        N  0.15486932  0.16626575  0.38525893    -0.64110
N298        N  0.12446229  0.27244644  0.28012699    -0.05940
N299        N  0.12123392  0.31873588  0.27516031    -0.64800
Mn300      Mn  0.18810580  0.18192320  0.29384480     1.10660
C301        C  0.16609140  0.33352306  0.27763066     0.98180
C302        C  0.11572028  0.17578060  0.40496973     0.98250
N303        N  0.00885934  0.13414300  0.25837634    -0.07050
N304        N  0.98203419  0.10007456  0.27170483    -0.62430
N305        N  0.02920988  0.24418807  0.22580536    -0.06370
N306        N  0.99594679  0.27692837  0.22264610    -0.59160
N307        N  0.02274362  0.21402237  0.19521618    -0.07680
N308        N  0.98622542  0.22633597  0.17070483    -0.61990
N309        N  0.01656615  0.16555196  0.28782445    -0.06670
N310        N  0.99591372  0.15366271  0.32138103    -0.59180
Mn311      Mn  0.04620495  0.14086840  0.19997916     1.20190
Mn312      Mn  0.06762479  0.22099090  0.28404814     1.10090
Cl313      Cl  0.11746860  0.16359306  0.24503637    -0.87150
C314        C  0.97434417  0.11293319  0.31121359     0.95180
C315        C  0.96958575  0.26571499  0.18767490     0.94980
N316        N  0.19978109  0.10164211  0.78968065    -0.07300
N317        N  0.20946687  0.06923104  0.81907124    -0.59420
N318        N  0.21936607  0.16764900  0.70434509    -0.06980
N319        N  0.25577167  0.17215738  0.68161411    -0.61550
N320        N  0.22694837  0.19038698  0.73941215    -0.06580
N321        N  0.26802121  0.21120991  0.74093904    -0.59400
N322        N  0.19323057  0.08059717  0.75355155    -0.06260
N323        N  0.19794916  0.03463532  0.75731130    -0.61900
C324        C  0.20818700  0.02759572  0.79791806     0.94870
C325        C  0.28569550  0.20007067  0.70461527     0.94650
N326        N  0.08191734  0.15812079  0.64262254    -0.07490
N327        N  0.06652732  0.16981595  0.60444971    -0.60000
N328        N  0.10926221  0.06032331  0.69340833    -0.05610
N329        N  0.11457021  0.01568322  0.68300638    -0.61250
N330        N  0.06487110  0.07055942  0.69562799    -0.07520
N331        N  0.03907523  0.03307729  0.68709119    -0.60270
N332        N  0.12711099  0.14890128  0.64388301    -0.05250
N333        N  0.14304263  0.15371686  0.60686785    -0.61340
Mn334      Mn  0.16311657  0.11477166  0.69797437     1.18440
C335        C  0.10525282  0.16757009  0.58267151     0.96960
C336        C  0.07051269  0.99888338  0.68003413     0.97620
N337        N  0.16229458  0.25610817  0.78891344    -0.07540
N338        N  0.18845579  0.29426590  0.78642366    -0.63850
N339        N  0.09840111  0.18495743  0.84411946    -0.06340
N340        N  0.08194899  0.18248688  0.88118962    -0.64520
N341        N  0.14222278  0.17127084  0.84576517    -0.07040
N342        N  0.15672755  0.15984031  0.88415727    -0.64110
N343        N  0.11771269  0.26815300  0.78603000    -0.05940
N344        N  0.11281480  0.31433843  0.78174769    -0.64800
Mn345      Mn  0.18412526  0.17994794  0.79216453     1.10660
C346        C  0.15714130  0.33039126  0.78205719     0.98180
C347        C  0.11864570  0.16678597  0.90595490     0.98250
N348        N  0.00379910  0.13012617  0.75518408    -0.07050
N349        N  0.97515330  0.09578051  0.76494022    -0.62430
N350        N  0.02261374  0.24288067  0.73213536    -0.06370
N351        N  0.99002152  0.27610682  0.73238197    -0.59160
N352        N  0.01563400  0.21673900  0.69879813    -0.07680
N353        N  0.97914451  0.23244318  0.67567632    -0.61990
N354        N  0.01246476  0.15762348  0.78741806    -0.06670
N355        N  0.99062700  0.14284571  0.81941227    -0.59180
Mn356      Mn  0.04066210  0.14361381  0.69742261     1.20190
Mn357      Mn  0.06257321  0.21460458  0.78769368     1.10090
Cl358      Cl  0.11267082  0.16367445  0.74355336    -0.87150
C359        C  0.96753435  0.10431971  0.80530405     0.95180
C360        C  0.96374874  0.26991272  0.69649119     0.94980
C361        C  0.13085668  0.13541079  0.51726002    -0.27500
C362        C  0.10541066  0.17021102  0.53704662    -0.15580
C363        C  0.08180269  0.20585472  0.51279251     0.35050
C364        C  0.08478474  0.20575149  0.46969790    -0.26950
C365        C  0.11166276  0.17188849  0.45019113    -0.16190
C366        C  0.13420923  0.13580324  0.47438434     0.36140
N367        N  0.15957611  0.09832840  0.45633408    -0.90440
H368        H  0.14831978  0.10736520  0.53535125     0.17250
H369        H  0.06734687  0.23368612  0.45146512     0.17240
N370        N  0.05693729  0.24416543  0.53048808    -0.89470
H371        H  0.18823100  0.11255380  0.44246810     0.34620
H372        H  0.13760932  0.08197115  0.43369111     0.39720
H373        H  0.06067560  0.24411480  0.56273180     0.39340
H374        H  0.02145557  0.24001212  0.52183305     0.34230
C375        C  0.15541346  0.16361144  0.02134359    -0.27500
C376        C  0.11216071  0.15806046  0.03872526    -0.15580
C377        C  0.07124677  0.15447460  0.01207046     0.35050
C378        C  0.07469084  0.15701159  0.96899469    -0.26950
C379        C  0.11783791  0.16271675  0.95165795    -0.16190
C380        C  0.15871935  0.16643667  0.97823016     0.36140
N381        N  0.20327681  0.17427743  0.96161267    -0.90440
H382        H  0.18690152  0.16652821  0.04155651     0.17250
H383        H  0.04329266  0.15478970  0.94876910     0.17240
N384        N  0.02648700  0.14711346  0.02845793    -0.89470
H385        H  0.22984263  0.17523224  0.98532711     0.34620
H386        H  0.20223353  0.20780589  0.94781737     0.39720
H387        H  0.01702833  0.17860008  0.04247922     0.39340
H388        H  0.00088325  0.14109854  0.00456285     0.34230
C389        C  0.84791452  0.31101992  0.64414708    -0.27500
C390        C  0.81771327  0.30144256  0.67544085    -0.15580
C391        C  0.83622451  0.28581058  0.71454511     0.35050
C392        C  0.88470939  0.27896292  0.72133299    -0.26950
C393        C  0.91498973  0.28685652  0.68962574    -0.16190
C394        C  0.89625974  0.30321958  0.65048190     0.36140
N395        N  0.92506329  0.31298067  0.61678924    -0.90440
H396        H  0.83372987  0.32409684  0.61433807     0.17250
H397        H  0.89874979  0.26552414  0.75106073     0.17240
N398        N  0.80566180  0.27678029  0.74710747    -0.89470
H399        H  0.91656089  0.28855152  0.59340651     0.34620
H400        H  0.96048731  0.30857418  0.62550171     0.39720
H401        H  0.79032857  0.30892914  0.75460135     0.39340
H402        H  0.82473331  0.26496062  0.77387466     0.34230
C403        C  0.35468786  0.18245478  0.66438702    -0.27500
C404        C  0.33504058  0.20904330  0.69534953    -0.15580
C405        C  0.36365273  0.24152672  0.71846382     0.35050
C406        C  0.41084144  0.24672764  0.70977058    -0.26950
C407        C  0.42983337  0.22097522  0.67805805    -0.16190
C408        C  0.40158385  0.18757838  0.65570790     0.36140
N409        N  0.41912123  0.15841921  0.62382978    -0.90440
H410        H  0.33360703  0.15686898  0.64688819     0.17250
H411        H  0.43210927  0.27310515  0.72610171     0.17240
N412        N  0.34454723  0.27018752  0.74981009    -0.89470
H413        H  0.41475678  0.12317533  0.63258390     0.34620
H414        H  0.45500421  0.16258588  0.62189512     0.39720
H415        H  0.31985741  0.29294894  0.73499710     0.39340
H416        H  0.37031462  0.29162654  0.76419399     0.34230
C417        C  0.62952454  0.38610279  0.84559036    -0.27500
C418        C  0.60185934  0.35304213  0.82295168    -0.15580
C419        C  0.57200210  0.32326732  0.84392902     0.35050
C420        C  0.57163948  0.32608041  0.88721694    -0.26950
C421        C  0.59979393  0.35862139  0.90996720    -0.16190
C422        C  0.62906424  0.38899352  0.88893529     0.36140
N423        N  0.65900890  0.42172013  0.91161590    -0.90440
H424        H  0.65259721  0.40897547  0.82952980     0.17250
H425        H  0.54859198  0.30313975  0.90323952     0.17240
N426        N  0.54165561  0.29087265  0.82125206    -0.89470
H427        H  0.67817765  0.44161811  0.89142508     0.34620
H428        H  0.68325890  0.40196444  0.93015310     0.39720
H429        H  0.51777902  0.31090344  0.80256102     0.39340
H430        H  0.52207867  0.27137270  0.84140499     0.34230
C431        C  0.59621816  0.39303009  0.38643925    -0.27500
C432        C  0.60119457  0.35142826  0.41017278    -0.15580
C433        C  0.60851282  0.30805081  0.38988447     0.35050
C434        C  0.60959392  0.30724632  0.34650562    -0.26950
C435        C  0.60463220  0.34880789  0.32282905    -0.16190
C436        C  0.59751191  0.39221191  0.34303781     0.36140
N437        N  0.59087702  0.43523840  0.31947540    -0.90440
H438        H  0.59013816  0.42625972  0.40168544     0.17250
H439        H  0.61564872  0.27403777  0.33120770     0.17240
N440        N  0.61548100  0.26496348  0.41330986    -0.89470
H441        H  0.58648361  0.46397128  0.33903280     0.34620
H442        H  0.55971462  0.43210717  0.30104615     0.39720
H443        H  0.64686249  0.26812881  0.43141736     0.39340
H444        H  0.61964773  0.23625276  0.39367593     0.34230
C445        C  0.89894319  0.30987182  0.20741888    -0.27500
C446        C  0.92034937  0.28160883  0.17852524    -0.15580
C447        C  0.89248120  0.26316886  0.14447673     0.35050
C448        C  0.84383074  0.27060257  0.14191161    -0.26950
C449        C  0.82265131  0.29758818  0.17153025    -0.16190
C450        C  0.85046842  0.31816109  0.20418101     0.36140
N451        N  0.82912193  0.34646500  0.23455658    -0.90440
H452        H  0.91974825  0.32416656  0.23353357     0.17250
H453        H  0.82243052  0.25617277  0.11619245     0.17240
N454        N  0.91346890  0.23660192  0.11277129    -0.89470
H455        H  0.85432735  0.35911450  0.25651561     0.34620
H456        H  0.80714262  0.32448743  0.25047165     0.39720
H457        H  0.93536662  0.25950760  0.09772635     0.39340
H458        H  0.88813242  0.22518328  0.09036703     0.34230
C459        C  0.35129759  0.19556258  0.15535908    -0.27500
C460        C  0.34075444  0.20039047  0.19670690    -0.15580
C461        C  0.37698592  0.21273075  0.22670877     0.35050
C462        C  0.42224573  0.22178716  0.21414844    -0.26950
C463        C  0.43188938  0.21949596  0.17237422    -0.16190
C464        C  0.39621017  0.20479688  0.14281927     0.36140
N465        N  0.40551227  0.19961379  0.09992394    -0.90440
H466        H  0.32406664  0.18523256  0.13242213     0.17250
H467        H  0.44947961  0.23279114  0.23680556     0.17240
N468        N  0.36810905  0.21573627  0.26980920    -0.89470
H469        H  0.37545711  0.18940395  0.08223818     0.34620
H470        H  0.42972497  0.17211537  0.09808593     0.39720
H471        H  0.34803766  0.24614084  0.27351038     0.39340
H472        H  0.39924438  0.22080826  0.28787757     0.34230
C473        C  0.99312617  0.90258214  0.63893008    -0.27500
C474        C  0.00534526  0.90291514  0.59771732    -0.15580
C475        C  0.04658322  0.92500364  0.58713354     0.35050
C476        C  0.07262533  0.95079198  0.61747091    -0.26950
C477        C  0.05657107  0.95606913  0.65728213    -0.16190
C478        C  0.01808439  0.92936448  0.66890345     0.36140
N479        N  0.00193220  0.93082083  0.71000526    -0.90440
H480        H  0.96135548  0.88518536  0.64698973     0.17250
H481        H  0.10215840  0.97134675  0.60859317     0.17240
N482        N  0.05951454  0.92436965  0.54500256    -0.89470
H483        H  0.96965085  0.94825580  0.70832640     0.34620
H484        H  0.02464472  0.94992764  0.73009694     0.39720
H485        H  0.06667833  0.88927654  0.53762102     0.39340
H486        H  0.09041606  0.94317813  0.54215778     0.34230
C487        C  0.92816401  0.06207559  0.41045902    -0.27500
C488        C  0.89622056  0.02881215  0.39396497    -0.15580
C489        C  0.89093549  0.02317343  0.35034888     0.35050
C490        C  0.91701028  0.05094839  0.32451405    -0.26950
C491        C  0.94810970  0.08482388  0.34068538    -0.16190
C492        C  0.95374572  0.09072224  0.38435605     0.36140
N493        N  0.98561760  0.12517459  0.40227152    -0.90440
H494        H  0.93220411  0.06670774  0.44371793     0.17250
H495        H  0.91268396  0.04622973  0.29126510     0.17240
N496        N  0.85919936  0.98901011  0.33203946    -0.89470
H497        H  0.98847732  0.12200405  0.43455691     0.34620
H498        H  0.97098956  0.15852757  0.39585491     0.39720
H499        H  0.87305956  0.95557035  0.33953676     0.39340
H500        H  0.85720218  0.99214414  0.29978123     0.34230
C501        C  0.76804295  0.61008384  0.57689768    -0.27500
C502        C  0.74911478  0.63226784  0.54049813    -0.15580
C503        C  0.71764076  0.60683440  0.51351982     0.35050
C504        C  0.70610243  0.56045475  0.52346050    -0.26950
C505        C  0.72309782  0.53887284  0.56061133    -0.16190
C506        C  0.75539096  0.56357477  0.58729007     0.36140
N507        N  0.77453108  0.54199561  0.62502639    -0.90440
H508        H  0.79273247  0.62904988  0.59734764     0.17250
H509        H  0.68165847  0.54178002  0.50255607     0.17240
N510        N  0.69645006  0.62824056  0.47638773    -0.89470
H511        H  0.79683581  0.56535954  0.64148314     0.34620
H512        H  0.79516028  0.51341569  0.61687063     0.39720
H513        H  0.67407471  0.65492914  0.48546279     0.39340
H514        H  0.67550396  0.60412890  0.45940244     0.34230
C515        C  0.69340366  0.07913326  0.50924715    -0.27500
C516        C  0.67636095  0.04050138  0.53093791    -0.15580
C517        C  0.64582833  0.04820723  0.56266474     0.35050
C518        C  0.63484166  0.09468778  0.57316194    -0.26950
C519        C  0.65329312  0.13335902  0.55249350    -0.16190
C520        C  0.68246392  0.12559911  0.51970266     0.36140
N521        N  0.70292904  0.16355865  0.49745513    -0.90440
H522        H  0.71741607  0.07317874  0.48528459     0.17250
H523        H  0.61197396  0.10070601  0.59798361     0.17240
N524        N  0.62610816  0.01008484  0.58521363    -0.89470
H525        H  0.73914615  0.16134643  0.50335014     0.34620
H526        H  0.69282448  0.19660673  0.50793081     0.39720
H527        H  0.63610699  0.97725005  0.57413164     0.39340
H528        H  0.58982258  0.01206165  0.57977831     0.34230
C529        C  0.83298617  0.87555195  0.71659039    -0.27500
C530        C  0.79757057  0.85466567  0.69098485    -0.15580
C531        C  0.76119418  0.83004211  0.70907784     0.35050
C532        C  0.76154660  0.82664199  0.75234886    -0.26950
C533        C  0.79702254  0.84738989  0.77791496    -0.16190
C534        C  0.83347604  0.87190369  0.75986044     0.36140
N535        N  0.87167598  0.89289553  0.78417826    -0.90440
H536        H  0.86127484  0.89382664  0.70278583     0.17250
H537        H  0.73325195  0.80842063  0.76618388     0.17240
N538        N  0.72316408  0.80871472  0.68479814    -0.89470
H539        H  0.90236888  0.87602589  0.77644458     0.34620
H540        H  0.86917676  0.88695464  0.81580853     0.39720
H541        H  0.72580328  0.81425418  0.65313927     0.39340
H542        H  0.69239504  0.82563871  0.69227017     0.34230
C543        C  0.77856208  0.82418994  0.20895751    -0.27500
C544        C  0.79890050  0.86315115  0.19017012    -0.15580
C545        C  0.82154399  0.89787943  0.21511733     0.35050
C546        C  0.82238786  0.89332081  0.25839694    -0.26950
C547        C  0.80184910  0.85469356  0.27722206    -0.16190
C548        C  0.77933273  0.81984152  0.25230630     0.36140
N549        N  0.75657016  0.78079428  0.27102375    -0.90440
H550        H  0.76171015  0.79722914  0.18966310     0.17250
H551        H  0.84024291  0.91928902  0.27760755     0.17240
N552        N  0.84502319  0.93658270  0.19655766    -0.89470
H553        H  0.74185675  0.75822808  0.24830597     0.34620
H554        H  0.72883957  0.79448154  0.28668791     0.39720
H555        H  0.87282609  0.92250669  0.18122136     0.39340
H556        H  0.85974176  0.95906204  0.21934942     0.34230
C557        C  0.02441065  0.95720848  0.07365162    -0.27500
C558        C  0.00013096  0.91669496  0.08449064    -0.15580
C559        C  0.00712663  0.89801218  0.12503288     0.35050
C560        C  0.03494946  0.92262431  0.15498508    -0.26950
C561        C  0.05606226  0.96514614  0.14474702    -0.16190
C562        C  0.05236297  0.98153486  0.10345746     0.36140
N563        N  0.07372395  0.02517721  0.09260477    -0.90440
H564        H  0.01888430  0.97200559  0.04272014     0.17250
H565        H  0.03707575  0.91044027  0.18687627     0.17240
N566        N  0.98264785  0.85663800  0.13692295    -0.89470
H567        H  0.04746302  0.04839066  0.08108025     0.34620
H568        H  0.09573262  0.01844094  0.06882631     0.39720
H569        H  0.96167067  0.86574134  0.16089335     0.39340
H570        H  0.00732018  0.83179167  0.14849513     0.34230
C571        C  0.91968237  0.04847174  0.90055438    -0.27500
C572        C  0.88013884  0.02501690  0.88357576    -0.15580
C573        C  0.87048726  0.02648394  0.83973556     0.35050
C574        C  0.90034975  0.05089865  0.81469668    -0.26950
C575        C  0.93911857  0.07512584  0.83203093    -0.16190
C576        C  0.94891537  0.07353503  0.87540337     0.36140
N577        N  0.98873575  0.09723409  0.89428397    -0.90440
H578        H  0.92802050  0.04776345  0.93371688     0.17250
H579        H  0.89227096  0.05215731  0.78149971     0.17240
N580        N  0.83060792  0.00426446  0.81936178    -0.89470
H581        H  0.00970644  0.07224171  0.91069375     0.34620
H582        H  0.97669030  0.12139107  0.91548724     0.39720
H583        H  0.80031728  0.01871852  0.83045858     0.39340
H584        H  0.83220138  0.96800160  0.82541906     0.34230
C585        C  0.70644985  0.62860026  0.06449200    -0.27500
C586        C  0.75261063  0.63759597  0.05595157    -0.15580
C587        C  0.78601780  0.60035030  0.05823573     0.35050
C588        C  0.77156858  0.55445401  0.06768098    -0.26950
C589        C  0.72477023  0.54528320  0.07409379    -0.16190
C590        C  0.69222533  0.58287905  0.07407952     0.36140
N591        N  0.64460035  0.57420875  0.08315576    -0.90440
H592        H  0.68119114  0.65727710  0.06282188     0.17250
H593        H  0.79651757  0.52555563  0.06814568     0.17240
N594        N  0.83409672  0.60718303  0.04972255    -0.89470
H595        H  0.62512370  0.60555916  0.08151134     0.34620
H596        H  0.64484539  0.56231512  0.11383036     0.39720
H597        H  0.84118760  0.64230328  0.04271400     0.39340
H598        H  0.84038288  0.58763361  0.02332711     0.34230
C599        C  0.64318821  0.09575313  0.08031586    -0.27500
C600        C  0.64435290  0.13121650  0.04986260    -0.15580
C601        C  0.65038968  0.11827002  0.00829899     0.35050
C602        C  0.65712703  0.07053979  0.99895812    -0.26950
C603        C  0.65952129  0.03576608  0.03014467    -0.16190
C604        C  0.65060724  0.04831935  0.07101573     0.36140
N605        N  0.64919623  0.01398550  0.10383876    -0.90440
H606        H  0.63684360  0.10496782  0.11193434     0.17250
H607        H  0.66505924  0.06128144  0.96771765     0.17240
N608        N  0.65412988  0.15223601  0.97549146    -0.89470
H609        H  0.67797806  0.01981785  0.12468851     0.34620
H610        H  0.65187218  0.97953693  0.09283580     0.39720
H611        H  0.65568199  0.18685103  0.98623263     0.39340
H612        H  0.62435145  0.14922944  0.95526665     0.34230
C613        C  0.37491052  0.45637168  0.03752832    -0.27500
C614        C  0.39453876  0.41307179  0.02691416    -0.15580
C615        C  0.38140488  0.39270166  0.98816655     0.35050
C616        C  0.35388881  0.41889637  0.95868561    -0.26950
C617        C  0.33913327  0.46454359  0.96785064    -0.16190
C618        C  0.34719488  0.48244515  0.00826448     0.36140
N619        N  0.33120753  0.52910682  0.01796133    -0.90440
H620        H  0.38486167  0.47187157  0.06736806     0.17250
H621        H  0.34759344  0.40526679  0.92758827     0.17240
N622        N  0.39967479  0.34767869  0.97711042    -0.89470
H623        H  0.34148367  0.53775443  0.04859063     0.34620
H624        H  0.29471160  0.52864557  0.01582186     0.39720
H625        H  0.41879476  0.35228610  0.95099657     0.39340
H626        H  0.37148117  0.32560112  0.96896350     0.34230
C627        C  0.49943536  0.50126675  0.74933876    -0.27500
C628        C  0.50681056  0.52056168  0.71017157    -0.15580
C629        C  0.48968936  0.56593071  0.69986783     0.35050
C630        C  0.46514564  0.59105715  0.72887804    -0.26950
C631        C  0.45722744  0.57188677  0.76817892    -0.16190
C632        C  0.47424372  0.52607700  0.77826721     0.36140
N633        N  0.46605808  0.50480400  0.81754517    -0.90440
H634        H  0.51318839  0.46640034  0.75726349     0.17250
H635        H  0.45272670  0.62630317  0.72077763     0.17240
N636        N  0.49879688  0.58699156  0.66068048    -0.89470
H637        H  0.48234098  0.47171040  0.82047739     0.34620
H638        H  0.43019567  0.49864116  0.81788701     0.39720
H639        H  0.53494276  0.59093694  0.66000395     0.39340
H640        H  0.48462323  0.62104612  0.65822981     0.34230
C641        C  0.50550108  0.77569012  0.95534840    -0.27500
C642        C  0.48390299  0.77938810  0.91515239    -0.15580
C643        C  0.51113140  0.79236783  0.88201931     0.35050
C644        C  0.55896397  0.80126555  0.89001838    -0.26950
C645        C  0.58052807  0.79614612  0.92989067    -0.16190
C646        C  0.55338921  0.78409011  0.96322216     0.36140
N647        N  0.57297427  0.77984087  0.00517883    -0.90440
H648        H  0.48508710  0.76533573  0.98087924     0.17250
H649        H  0.57993684  0.81124245  0.86474327     0.17240
N650        N  0.49092021  0.79454516  0.84016661    -0.89470
H651        H  0.55749790  0.80587663  0.02260554     0.34620
H652        H  0.60879605  0.78638466  0.00740651     0.39720
H653        H  0.48256438  0.76001374  0.83116482     0.39340
H654        H  0.51538878  0.80640019  0.81997963     0.34230
C655        C  0.03011508  0.71737473  0.87825807    -0.27500
C656        C  0.06633163  0.71155491  0.90954694    -0.15580
C657        C  0.05596100  0.71660396  0.95128731     0.35050
C658        C  0.01048719  0.72721006  0.96074971    -0.26950
C659        C  0.97403818  0.73314748  0.92975597    -0.16190
C660        C  0.98397871  0.72810084  0.88791042     0.36140
N661        N  0.94775455  0.73436992  0.85547561    -0.90440
H662        H  0.03778762  0.71337695  0.84613145     0.17250
H663        H  0.00387932  0.73106391  0.99314369     0.17240
N664        N  0.09096658  0.71273578  0.98488099    -0.89470
H665        H  0.96076927  0.72830957  0.82654540     0.34620
H666        H  0.93736180  0.76982595  0.85557345     0.39720
H667        H  0.11800722  0.73619100  0.97961706     0.39340
H668        H  0.10400993  0.67821466  0.98624874     0.34230
C669        C  0.13485111  0.41373035  0.76342184    -0.27500
C670        C  0.16898833  0.38150095  0.77971125    -0.15580
C671        C  0.21232269  0.39910106  0.79593107     0.35050
C672        C  0.21934534  0.44819756  0.79753408    -0.26950
C673        C  0.18391709  0.48045744  0.78428302    -0.16190
C674        C  0.14167247  0.46289272  0.76548469     0.36140
N675        N  0.10381800  0.49337659  0.75086666    -0.90440
H676        H  0.10164143  0.40069986  0.75036881     0.17250
H677        H  0.25156224  0.46155712  0.81242872     0.17240
N678        N  0.24798070  0.36752487  0.81323361    -0.89470
H679        H  0.09766258  0.48751377  0.71910211     0.34620
H680        H  0.11273769  0.52890446  0.75398030     0.39720
H681        H  0.23561612  0.35228824  0.83988622     0.39340
H682        H  0.27805827  0.38619757  0.82294639     0.34230
C683        C  0.18760272  0.89673215  0.80636325    -0.27500
C684        C  0.23046979  0.88091322  0.82477111    -0.15580
C685        C  0.26251404  0.91470085  0.84193871     0.35050
C686        C  0.25269119  0.96347821  0.83686298    -0.26950
C687        C  0.21161560  0.97893864  0.81504539    -0.16190
C688        C  0.17819519  0.94514158  0.80099837     0.36140
N689        N  0.13527043  0.95996275  0.77949087    -0.90440
H690        H  0.16230313  0.87149143  0.79368574     0.17250
H691        H  0.27851006  0.98928897  0.84742793     0.17240
N692        N  0.30546877  0.89947466  0.86339699    -0.89470
H693        H  0.10766678  0.94673872  0.79553821     0.34620
H694        H  0.13340479  0.94468623  0.75007970     0.39720
H695        H  0.29688623  0.88107243  0.88993030     0.39340
H696        H  0.32529682  0.92855785  0.87361591     0.34230
C697        C  0.33558054  0.65385681  0.59259448    -0.27500
C698        C  0.29563225  0.66274381  0.56631935    -0.15580
C699        C  0.25235800  0.67090555  0.58378422     0.35050
C700        C  0.24999874  0.66919240  0.62691776    -0.26950
C701        C  0.28994748  0.66072282  0.65313183    -0.16190
C702        C  0.33316046  0.65245770  0.63583721     0.36140
N703        N  0.37428284  0.64202882  0.66215498    -0.90440
H704        H  0.36858819  0.64682863  0.57936194     0.17250
H705        H  0.21699044  0.67615277  0.64018199     0.17240
N706        N  0.21097976  0.68158543  0.55779970    -0.89470
H707        H  0.40304283  0.63708747  0.64447022     0.34620
H708        H  0.36879052  0.60982137  0.67702104     0.39720
H709        H  0.21619539  0.71415904  0.54345582     0.39340
H710        H  0.18208739  0.68584268  0.57549787     0.34230
C711        C  0.33379192  0.67134353  0.08873094    -0.27500
C712        C  0.29127839  0.66474851  0.06544342    -0.15580
C713        C  0.24989714  0.65930058  0.08648774     0.35050
C714        C  0.25228805  0.65983684  0.12994619    -0.26950
C715        C  0.29470317  0.66655610  0.15324113    -0.16190
C716        C  0.33611031  0.67207202  0.13229000     0.36140
N717        N  0.38041178  0.67826192  0.15502999    -0.90440
H718        H  0.36566245  0.67525218  0.07292779     0.17250
H719        H  0.22038416  0.65582409  0.14568087     0.17240
N720        N  0.20543565  0.65328362  0.06394635    -0.89470
H721        H  0.40696641  0.68340192  0.13488279     0.34620
H722        H  0.38839334  0.64671560  0.17098378     0.39720
H723        H  0.19725469  0.68504786  0.04839758     0.39340
H724        H  0.17901415  0.64773052  0.08415226     0.34230
C725        C  0.33397644  0.46274450  0.49875715    -0.27500
C726        C  0.33968284  0.45394150  0.45677188    -0.15580
C727        C  0.36610757  0.41449673  0.44545383     0.35050
C728        C  0.39055187  0.38799137  0.47659547    -0.26950
C729        C  0.39017838  0.40122727  0.51834557    -0.16190
C730        C  0.35955810  0.43729997  0.52976803     0.36140
N731        N  0.35585840  0.45087799  0.57218241    -0.90440
H732        H  0.31346172  0.49291609  0.50751229     0.17250
H733        H  0.41414804  0.36040631  0.46765431     0.17240
N734        N  0.37161849  0.40258297  0.40290760    -0.89470
H735        H  0.37016007  0.48462331  0.57588492     0.34620
H736        H  0.37503479  0.42820398  0.59251079     0.39720
H737        H  0.35108996  0.42442149  0.38286032     0.39340
H738        H  0.35875279  0.36838655  0.39827086     0.34230
C739        C  0.51050066  0.55823046  0.28216861    -0.27500
C740        C  0.46318154  0.56601092  0.27130910    -0.15580
C741        C  0.44416379  0.55244252  0.23154711     0.35050
C742        C  0.47344107  0.53223155  0.20344423    -0.26950
C743        C  0.52098493  0.52467105  0.21413570    -0.16190
C744        C  0.53988211  0.53850555  0.25383994     0.36140
N745        N  0.58904506  0.53370546  0.26497696    -0.90440
H746        H  0.52508196  0.56988551  0.31214243     0.17250
H747        H  0.45853890  0.52134096  0.17335981     0.17240
N748        N  0.39543905  0.55809789  0.21871007    -0.89470
H749        H  0.59701562  0.54509711  0.29529934     0.34620
H750        H  0.60661231  0.55629223  0.24567527     0.39720
H751        H  0.37621350  0.57038809  0.24271585     0.39340
H752        H  0.38214908  0.52457643  0.21155442     0.34230
C753        C  0.56121809  0.82625543  0.40496441    -0.27500
C754        C  0.59130216  0.80047185  0.43280646    -0.15580
C755        C  0.57253658  0.76453347  0.45725924     0.35050
C756        C  0.52503505  0.75354941  0.45129133    -0.26950
C757        C  0.49527370  0.77752950  0.42176837    -0.16190
C758        C  0.51347300  0.81527426  0.39913113     0.36140
N759        N  0.48386644  0.84169116  0.36968867    -0.90440
H760        H  0.57535943  0.85436194  0.38674070     0.17250
H761        H  0.51161019  0.72511857  0.46957774     0.17240
N762        N  0.59973035  0.73940585  0.48929026    -0.89470
H763        H  0.50295344  0.86756574  0.35510601     0.34620
H764        H  0.45919840  0.85957824  0.38619666     0.39720
H765        H  0.63313073  0.75326778  0.49469741     0.39340
H766        H  0.60313885  0.70445583  0.47964487     0.34230
C767        C  0.04932679  0.74686980  0.38524337    -0.27500
C768        C  0.07702647  0.71643281  0.41134885    -0.15580
C769        C  0.05733692  0.69622802  0.44622948     0.35050
C770        C  0.01107201  0.70718316  0.45406758    -0.26950
C771        C  0.98340455  0.73744378  0.42803211    -0.16190
C772        C  0.00310224  0.75822521  0.39332141     0.36140
N773        N  0.97855513  0.79211079  0.36652962    -0.90440
H774        H  0.06392880  0.76286255  0.35851600     0.17250
H775        H  0.99633579  0.69189680  0.48106367     0.17240
N776        N  0.08399048  0.66466660  0.47373708    -0.89470
H777        H  0.99705236  0.82384067  0.36875179     0.34620
H778        H  0.94539583  0.79967617  0.37598442     0.39720
H779        H  0.08835207  0.63309358  0.45779829     0.39340
H780        H  0.06537341  0.65594768  0.49938856     0.34230
C781        C  0.22634542  0.45086121  0.30271254    -0.27500
C782        C  0.19409924  0.48387075  0.28456781    -0.15580
C783        C  0.15560466  0.46670479  0.25951551     0.35050
C784        C  0.14886651  0.41744832  0.25597767    -0.26950
C785        C  0.17939268  0.38458819  0.27680358    -0.16190
C786        C  0.21942073  0.40204679  0.29948454     0.36140
N787        N  0.25205121  0.37154537  0.32212685    -0.90440
H788        H  0.25592379  0.46322348  0.32226283     0.17250
H789        H  0.11831507  0.40480199  0.23795212     0.17240
N790        N  0.12155002  0.49762478  0.23889390    -0.89470
H791        H  0.26717907  0.34898134  0.30130925     0.34620
H792        H  0.23420158  0.35159122  0.34324046     0.39720
H793        H  0.13033951  0.53304388  0.24305791     0.39340
H794        H  0.08986883  0.49245134  0.25239984     0.34230
C795        C  0.20871442  0.90237001  0.33780260    -0.27500
C796        C  0.25288366  0.88569129  0.32809519    -0.15580
C797        C  0.28780011  0.91934690  0.32008863     0.35050
C798        C  0.27665299  0.96792300  0.31919681    -0.26950
C799        C  0.23186840  0.98426885  0.32663424    -0.16190
C800        C  0.19783953  0.95099540  0.33719719     0.36140
N801        N  0.15138439  0.96517013  0.34597259    -0.90440
H802        H  0.18183570  0.87736648  0.34481190     0.17250
H803        H  0.30227727  0.99311682  0.30973934     0.17240
N804        N  0.33366857  0.90432741  0.31022433    -0.89470
H805        H  0.12845884  0.95256652  0.32213086     0.34620
H806        H  0.14792073  0.00191588  0.34621870     0.39720
H807        H  0.35061980  0.89102747  0.33747025     0.39340
H808        H  0.35350973  0.93312568  0.30140614     0.34230
loop_ 
_geom_bond_atom_site_label_1 
_geom_bond_atom_site_label_2 
_geom_bond_distance 
_geom_bond_site_symmetry_2 
_ccdc_geom_bond_type 
N1            N2   1.328       .  A
N1            N7   1.320       .  A
N1          Mn30   2.265       .  S
N2            C9   1.364       .  A
N3            N5   1.311       .  A
N3            N4   1.319       .  A
N3          Mn19   2.187       .  S
N4           C10   1.351       .  A
N5            N6   1.320       .  A
N5          Mn30   2.190       .  S
N6           C10   1.355       .  A
N7            N8   1.318       .  A
N7          Mn19   2.195       .  S
N8            C9   1.350       .  A
C9          C796   1.501       .  S
C10         C715   1.486       .  S
N11          N17   1.317       .  A
N11          N12   1.326       .  A
N11         Mn41   2.235       .  S
N12          C20   1.359       .  A
N13          N14   1.322       .  A
N13          N15   1.316       .  A
N13         Mn19   2.203       .  S
N14          C21   1.354       .  A
N15          N16   1.319       .  A
N15         Mn41   2.192       .  S
N16          C21   1.351       .  A
N17          N18   1.313       .  A
N17         Mn19   2.168       .  S
N18          C20   1.343       .  A
Mn19        Cl43   2.536       .  S
C20         C740   1.468       .  S
C21         C757   1.489       .  S
N22          N23   1.334       .  A
N22          N28   1.317       .  A
N22         Mn30   2.274       .  S
N23          C31   1.369       .  A
N24          N26   1.312       .  A
N24          N25   1.319       .  A
N24         Mn42   2.188       .  S
N25          C32   1.353       .  A
N26          N27   1.321       .  A
N26         Mn30   2.194       .  S
N27          C32   1.353       .  A
N28          N29   1.311       .  A
N28         Mn42   2.160       .  S
N29          C31   1.341       .  A
Mn30        Cl43   2.549       .  S
C31         C782   1.492       .  S
C32         C768   1.489       .  S
N33          N34   1.325       .  A
N33          N39   1.318       .  A
N33         Mn41   2.240       .  S
N34          C44   1.360       .  A
N35          N36   1.320       .  A
N35          N37   1.312       .  A
N35         Mn42   2.187       .  S
N36          C45   1.350       .  A
N37          N38   1.318       .  A
N37         Mn41   2.187       .  S
N38          C45   1.351       .  A
N39          N40   1.313       .  A
N39         Mn42   2.172       .  S
N40          C44   1.347       .  A
Mn41        Cl43   2.544       .  S
Mn42        Cl43   2.534       .  S
C44         C698   1.481       .  S
C45         C726   1.465       .  S
N46          N47   1.322       .  A
N46          N52   1.318       .  A
N46         Mn75   2.230       .  S
N47          C54   1.358   1_556  A
N48          N50   1.313       .  A
N48          N49   1.321       .  A
N48         Mn64   2.188       .  S
N49          C55   1.350       .  A
N50          N51   1.316       .  A
N50         Mn75   2.181       .  S
N51          C55   1.349       .  A
N52          N53   1.317       .  A
N52         Mn64   2.189       .  S
N53          C54   1.351   1_556  A
C54         C712   1.488       .  S
C55         C617   1.462       .  S
N56          N62   1.318       .  A
N56          N57   1.331       .  A
N56         Mn86   2.257       .  S
N57          C65   1.365       .  A
N58          N59   1.320       .  A
N58          N60   1.314       .  A
N58         Mn64   2.198       .  S
N59          C66   1.353       .  A
N60          N61   1.321       .  A
N60         Mn86   2.190       .  S
N61          C66   1.351       .  A
N62          N63   1.311       .  A
N62         Mn64   2.167       .  S
N63          C65   1.342       .  A
Mn64        Cl88   2.534       .  S
C65         C673   1.481       .  S
C66         C656   1.482       .  S
N67          N68   1.328       .  A
N67          N73   1.316       .  A
N67         Mn75   2.244       .  S
N68          C76   1.364       .  A
N69          N71   1.315       .  A
N69          N70   1.322       .  A
N69         Mn87   2.195       .  S
N70          C77   1.353       .  A
N71          N72   1.318       .  A
N71         Mn75   2.186       .  S
N72          C77   1.348       .  A
N73          N74   1.314       .  A
N73         Mn87   2.171       .  S
N74          C76   1.346       .  A
Mn75        Cl88   2.534       .  S
C76         C631   1.491       .  S
C77         C642   1.483       .  S
N78          N79   1.325       .  A
N78          N84   1.320       .  A
N78         Mn86   2.245       .  S
N79          C89   1.360       .  A
N80          N81   1.317       .  A
N80          N82   1.311       .  A
N80         Mn87   2.176       .  S
N81          C90   1.348       .  A
N82          N83   1.322       .  A
N82         Mn86   2.196       .  S
N83          C90   1.357       .  A
N84          N85   1.320       .  A
N84         Mn87   2.201       .  S
N85          C89   1.352       .  A
Mn86        Cl88   2.554       .  S
Mn87        Cl88   2.535       .  S
C89         C684   1.491       .  S
C90         C701   1.477       .  S
N91          N92   1.330       .  A
N91          N97   1.316       .  A
N91        Mn120   2.248       .  S
N92          C99   1.365       .  A
N93          N95   1.315   1_554  A
N93          N94   1.320       .  A
N93        Mn109   2.182       .  S
N94         C100   1.349       .  A
N95          N96   1.318   1_556  A
N95        Mn120   2.196       .  S
N96         C100   1.350       .  A
N97          N98   1.309       .  A
N97        Mn109   2.161   1_556  S
N98          C99   1.343       .  A
C99         C659   1.486       .  S
C100        C586   1.464       .  S
N101        N107   1.317       .  A
N101        N102   1.324       .  A
N101       Mn131   2.232       .  S
N102        C110   1.358       .  A
N103        N104   1.321       .  A
N103        N105   1.313       .  A
N103       Mn109   2.193       .  S
N104        C111   1.351       .  A
N105        N106   1.318       .  A
N105       Mn131   2.182       .  S
N106        C111   1.351       .  A
N107        N108   1.316       .  A
N107       Mn109   2.177       .  S
N108        C110   1.348       .  A
Mn109      Cl133   2.531   1_554  S
C110        C544   1.475       .  S
C111        C558   1.471   1_655  S
N112        N113   1.324       .  A
N112        N118   1.318       .  A
N112       Mn120   2.239       .  S
N113        C121   1.358       .  A
N114        N116   1.314       .  A
N114        N115   1.319       .  A
N114       Mn132   2.192       .  S
N115        C122   1.349       .  A
N116        N117   1.323       .  A
N116       Mn120   2.201       .  S
N117        C122   1.354       .  A
N118        N119   1.317       .  A
N118       Mn132   2.180       .  S
N119        C121   1.346       .  A
Mn120      Cl133   2.550       .  S
C121        C645   1.469       .  S
C122        C533   1.470       .  S
N123        N124   1.325       .  A
N123        N129   1.315       .  A
N123       Mn131   2.238   1_556  S
N124        C134   1.363       .  A
N125        N126   1.322       .  A
N125        N127   1.315   1_556  A
N125       Mn132   2.196       .  S
N126        C135   1.354   1_556  A
N127        N128   1.316       .  A
N127       Mn131   2.186       .  S
N128        C135   1.348       .  A
N129        N130   1.313       .  A
N129       Mn132   2.159       .  S
N130        C134   1.343       .  A
Mn131      Cl133   2.540   1_554  S
Mn132      Cl133   2.539       .  S
C134        C572   1.487   1_565  S
C135        C603   1.469   1_565  S
N136        N137   1.327       .  A
N136        N142   1.318       .  A
N136       Mn165   2.238       .  S
N137        C144   1.361       .  A
N138        N140   1.313       .  A
N138        N139   1.325       .  A
N138       Mn154   2.200       .  S
N139        C145   1.358       .  A
N140        N141   1.313       .  A
N140       Mn165   2.177       .  S
N141        C145   1.347       .  A
N142        N143   1.313       .  A
N142       Mn154   2.175       .  S
N143        C144   1.345       .  A
C144        C771   1.478       .  S
C145        C502   1.486       .  S
N146        N152   1.319       .  A
N146        N147   1.322       .  A
N146       Mn176   2.231       .  S
N147        C155   1.354       .  A
N148        N149   1.320       .  A
N148        N150   1.314       .  A
N148       Mn154   2.188       .  S
N149        C156   1.349       .  A
N150        N151   1.317       .  A
N150       Mn176   2.184       .  S
N151        C156   1.350       .  A
N152        N153   1.319       .  A
N152       Mn154   2.197       .  S
N153        C155   1.351       .  A
Mn154      Cl178   2.546       .  S
C155        C530   1.472       .  S
C156        C474   1.460   1_655  S
N157        N158   1.322       .  A
N157        N163   1.318       .  A
N157       Mn165   2.226       .  S
N158        C166   1.357       .  A
N159        N161   1.313       .  A
N159        N160   1.319       .  A
N159       Mn177   2.193       .  S
N160        C167   1.350       .  A
N161        N162   1.322       .  A
N161       Mn165   2.193       .  S
N162        C167   1.354       .  A
N163        N164   1.319       .  A
N163       Mn177   2.192       .  S
N164        C166   1.351       .  A
Mn165      Cl178   2.540       .  S
C166        C754   1.479       .  S
C167        C547   1.476       .  S
N168        N169   1.329       .  A
N168        N174   1.316       .  A
N168       Mn176   2.245       .  S
N169        C179   1.364   1_565  A
N170        N171   1.321       .  A
N170        N172   1.315       .  A
N170       Mn177   2.192       .  S
N171        C180   1.352       .  A
N172        N173   1.317       .  A
N172       Mn176   2.191       .  S
N173        C180   1.348       .  A
N174        N175   1.310       .  A
N174       Mn177   2.162       .  S
N175        C179   1.343   1_565  A
Mn176      Cl178   2.535       .  S
Mn177      Cl178   2.542       .  S
C179        C488   1.487       .  S
C180        C516   1.465   1_565  S
N181        N182   1.326       .  A
N181        N187   1.314       .  A
N181       Mn210   2.232       .  S
N182        C189   1.362       .  A
N183        N185   1.316       .  A
N183        N184   1.323       .  A
N183       Mn199   2.201       .  S
N184        C190   1.353       .  A
N185        N186   1.314       .  A
N185       Mn210   2.181       .  S
N186        C190   1.346       .  A
N187        N188   1.312       .  A
N187       Mn199   2.156       .  S
N188        C189   1.344       .  A
C189        C743   1.480       .  S
C190        C589   1.468       .  S
N191        N197   1.319       .  A
N191        N192   1.326       .  A
N191       Mn221   2.250       .  S
N192        C200   1.360       .  A
N193        N194   1.318       .  A
N193        N195   1.314       .  A
N193       Mn199   2.187       .  S
N194        C201   1.349       .  A
N195        N196   1.324       .  A
N195       Mn221   2.210       .  S
N196        C201   1.358       .  A
N197        N198   1.316       .  A
N197       Mn199   2.176       .  S
N198        C200   1.346       .  A
Mn199      Cl223   2.539       .  S
C200        C449   1.476       .  S
C201        C435   1.485       .  S
N202        N203   1.324   1_554  A
N202        N208   1.316       .  A
N202       Mn210   2.230       .  S
N203        C211   1.358       .  A
N204        N206   1.312       .  A
N204        N205   1.321       .  A
N204       Mn222   2.189       .  S
N205        C212   1.352       .  A
N206        N207   1.316       .  A
N206       Mn210   2.179       .  S
N207        C212   1.351       .  A
N208        N209   1.316   1_554  A
N208       Mn222   2.178       .  S
N209        C211   1.349       .  A
Mn210      Cl223   2.534       .  S
C211        C421   1.480       .  S
C212        C614   1.470       .  S
N213        N214   1.331       .  A
N213        N219   1.316       .  A
N213       Mn221   2.257       .  S
N214        C224   1.366       .  A
N215        N216   1.320       .  A
N215        N217   1.316       .  A
N215       Mn222   2.187       .  S
N216        C225   1.351       .  A
N217        N218   1.318       .  A
N217       Mn221   2.199       .  S
N218        C225   1.352       .  A
N219        N220   1.310       .  A
N219       Mn222   2.156       .  S
N220        C224   1.341       .  A
Mn221      Cl223   2.552       .  S
Mn222      Cl223   2.534       .  S
C224        C463   1.485       .  S
C225        C600   1.475       .  S
N226        N227   1.321       .  A
N226        N232   1.313       .  A
N226       Mn255   2.191       .  S
N227        C234   1.352       .  A
N228        N230   1.317       .  A
N228        N229   1.324       .  A
N228       Mn244   2.235       .  S
N229        C235   1.360       .  A
N230        N231   1.317       .  A
N230       Mn255   2.185       .  S
N231        C235   1.350       .  A
N232        N233   1.317       .  A
N232       Mn244   2.184       .  S
N233        C234   1.350       .  A
C234        C729   1.466       .  S
C235        C432   1.488       .  S
N236        N242   1.314       .  A
N236        N237   1.324       .  A
N236       Mn266   2.200       .  S
N237        C245   1.356       .  A
N238        N239   1.326       .  A
N238        N240   1.316       .  A
N238       Mn244   2.239       .  S
N239        C246   1.361       .  A
N240        N241   1.315       .  A
N240       Mn266   2.169       .  S
N241        C246   1.344       .  A
N242        N243   1.314       .  A
N242       Mn244   2.181       .  S
N243        C245   1.349       .  A
Mn244      Cl268   2.535       .  S
C245        C505   1.485       .  S
C246        C628   1.476       .  S
N247        N248   1.320       .  A
N247        N253   1.316       .  A
N247       Mn255   2.189       .  S
N248        C256   1.350       .  A
N249        N251   1.318       .  A
N249        N250   1.328       .  A
N249       Mn267   2.246       .  S
N250        C257   1.362       .  A
N251        N252   1.313       .  A
N251       Mn255   2.172       .  S
N252        C257   1.343       .  A
N253        N254   1.319       .  A
N253       Mn267   2.200       .  S
N254        C256   1.351       .  A
Mn255      Cl268   2.539       .  S
C256        C519   1.466       .  S
C257        C407   1.476       .  S
N258        N259   1.317       .  A
N258        N264   1.313       .  A
N258       Mn266   2.182       .  S
N259        C269   1.349       .  A
N260        N261   1.324       .  A
N260        N262   1.320       .  A
N260       Mn267   2.244       .  S
N261        C270   1.358       .  A
N262        N263   1.319       .  A
N262       Mn266   2.191       .  S
N263        C270   1.349       .  A
N264        N265   1.322       .  A
N264       Mn267   2.202       .  S
N265        C269   1.357       .  A
Mn266      Cl268   2.542       .  S
Mn267      Cl268   2.551       .  S
C269        C418   1.479       .  S
C270        C390   1.475       .  S
N271        N272   1.332       .  A
N271        N277   1.319       .  A
N271       Mn300   2.270       .  S
N272        C279   1.366       .  A
N273        N275   1.315       .  A
N273        N274   1.324       .  A
N273       Mn289   2.214       .  S
N274        C280   1.358       .  A
N275        N276   1.318       .  A
N275       Mn300   2.183       .  S
N276        C280   1.348       .  A
N277        N278   1.313       .  A
N277       Mn289   2.169       .  S
N278        C279   1.341       .  A
C279        C799   1.481   1_545  S
C280        C460   1.487       .  S
N281        N287   1.319       .  A
N281        N282   1.321       .  A
N281       Mn311   2.228       .  S
N282        C290   1.355       .  A
N283        N284   1.322       .  A
N283        N285   1.313       .  A
N283       Mn289   2.196       .  S
N284        C291   1.351   1_545  A
N285        N286   1.316       .  A
N285       Mn311   2.176       .  S
N286        C291   1.348   1_545  A
N287        N288   1.319       .  A
N287       Mn289   2.195       .  S
N288        C290   1.353       .  A
Mn289      Cl313   2.547       .  S
C290        C376   1.486       .  S
C291        C561   1.465       .  S
N292        N293   1.325       .  A
N292        N298   1.321       .  A
N292       Mn300   2.260       .  S
N293        C301   1.360       .  A
N294        N296   1.312       .  A
N294        N295   1.319       .  A
N294       Mn312   2.185       .  S
N295        C302   1.349       .  A
N296        N297   1.322       .  A
N296       Mn300   2.195       .  S
N297        C302   1.355       .  A
N298        N299   1.321       .  A
N298       Mn312   2.201       .  S
N299        C301   1.353       .  A
Mn300      Cl313   2.543       .  S
C301        C785   1.497       .  S
C302        C365   1.479       .  S
N303        N304   1.325   1_455  A
N303        N309   1.316       .  A
N303       Mn311   2.241       .  S
N304        C314   1.363       .  A
N305        N306   1.326   1_455  A
N305        N307   1.315       .  A
N305       Mn312   2.213       .  S
N306        C315   1.359       .  A
N307        N308   1.316   1_455  A
N307       Mn311   2.176       .  S
N308        C315   1.345       .  A
N309        N310   1.314   1_455  A
N309       Mn312   2.161       .  S
N310        C314   1.343       .  A
Mn311      Cl313   2.520       .  S
Mn312      Cl313   2.554       .  S
C314        C491   1.484       .  S
C315        C446   1.491       .  S
N316        N317   1.332       .  A
N316        N322   1.318       .  A
N316       Mn345   2.262       .  S
N317        C324   1.366       .  A
N318        N320   1.314       .  A
N318        N319   1.324       .  A
N318       Mn334   2.207       .  S
N319        C325   1.358       .  A
N320        N321   1.319       .  A
N320       Mn345   2.189       .  S
N321        C325   1.349       .  A
N322        N323   1.311       .  A
N322       Mn334   2.164       .  S
N323        C324   1.341       .  A
C324        C687   1.482   1_545  S
C325        C404   1.490       .  S
N326        N332   1.320       .  A
N326        N327   1.323       .  A
N326       Mn356   2.234       .  S
N327        C335   1.357       .  A
N328        N329   1.320       .  A
N328        N330   1.312       .  A
N328       Mn334   2.186       .  S
N329        C336   1.351   1_545  A
N330        N331   1.317       .  A
N330       Mn356   2.180       .  S
N331        C336   1.351   1_545  A
N332        N333   1.317       .  A
N332       Mn334   2.189       .  S
N333        C335   1.350       .  A
Mn334      Cl358   2.545       .  S
C335        C362   1.478       .  S
C336        C477   1.465       .  S
N337        N338   1.323       .  A
N337        N343   1.320       .  A
N337       Mn345   2.242       .  S
N338        C346   1.359       .  A
N339        N341   1.312       .  A
N339        N340   1.320       .  A
N339       Mn357   2.195       .  S
N340        C347   1.352       .  A
N341        N342   1.321       .  A
N341       Mn345   2.189       .  S
N342        C347   1.354       .  A
N343        N344   1.320       .  A
N343       Mn357   2.200       .  S
N344        C346   1.352       .  A
Mn345      Cl358   2.545       .  S
C346        C670   1.490       .  S
C347        C379   1.484       .  S
N348        N349   1.326   1_455  A
N348        N354   1.316       .  A
N348       Mn356   2.240       .  S
N349        C359   1.361       .  A
N350        N351   1.324   1_455  A
N350        N352   1.316       .  A
N350       Mn357   2.211       .  S
N351        C360   1.355       .  A
N352        N353   1.320   1_455  A
N352       Mn356   2.189       .  S
N353        C360   1.348       .  A
N354        N355   1.313   1_455  A
N354       Mn357   2.166       .  S
N355        C359   1.345       .  A
Mn356      Cl358   2.536       .  S
Mn357      Cl358   2.542       .  S
C359        C575   1.479       .  S
C360        C393   1.479       .  S
C361        C362   1.406       .  A
C361        C366   1.397       .  A
C361        H368   1.084       .  S
C362        C363   1.416       .  A
C363        C364   1.403       .  A
C363        N370   1.438       .  S
C364        C365   1.406       .  A
C364        H369   1.084       .  S
C365        C366   1.411       .  A
C366        N367   1.433       .  S
N367        H371   1.044       .  S
N367        H372   1.046       .  S
N370        H373   1.042       .  S
N370        H374   1.045       .  S
C375        C376   1.406       .  A
C375        C380   1.406   1_554  A
C375        H382   1.083       .  S
C376        C377   1.414       .  A
C377        C378   1.405   1_554  A
C377        N384   1.438       .  S
C378        C379   1.403       .  A
C378        H383   1.080       .  S
C379        C380   1.412       .  A
C380        N381   1.438       .  S
N381        H385   1.046       .  S
N381        H386   1.046       .  S
N384        H387   1.045       .  S
N384        H388   1.046       .  S
C389        C390   1.402       .  A
C389        C394   1.405       .  A
C389        H396   1.084       .  S
C390        C391   1.407       .  A
C391        C392   1.407       .  A
C391        N398   1.438       .  S
C392        C393   1.406       .  A
C392        H397   1.084       .  S
C393        C394   1.417       .  A
C394        N395   1.438       .  S
N395        H399   1.045       .  S
N395        H400   1.044       .  S
N398        H401   1.046       .  S
N398        H402   1.046       .  S
C403        C404   1.403       .  A
C403        C408   1.401       .  A
C403        H410   1.084       .  S
C404        C405   1.419       .  A
C405        C406   1.410       .  A
C405        N412   1.438       .  S
C406        C407   1.400       .  A
C406        H411   1.084       .  S
C407        C408   1.418       .  A
C408        N409   1.440       .  S
N409        H413   1.046       .  S
N409        H414   1.043       .  S
N412        H415   1.046       .  S
N412        H416   1.046       .  S
C417        C418   1.407       .  A
C417        C422   1.406       .  A
C417        H424   1.083       .  S
C418        C419   1.408       .  A
C419        C420   1.404       .  A
C419        N426   1.438       .  S
C420        C421   1.407       .  A
C420        H425   1.083       .  S
C421        C422   1.409       .  A
C422        N423   1.438       .  S
N423        H427   1.046       .  S
N423        H428   1.046       .  S
N426        H429   1.046       .  S
N426        H430   1.046       .  S
C431        C432   1.403       .  A
C431        C436   1.408       .  A
C431        H438   1.083       .  S
C432        C433   1.417       .  A
C433        C434   1.406       .  A
C433        N440   1.438       .  S
C434        C435   1.401       .  A
C434        H439   1.083       .  S
C435        C436   1.415       .  A
C436        N437   1.438       .  S
N437        H441   1.046       .  S
N437        H442   1.046       .  S
N440        H443   1.046       .  S
N440        H444   1.046       .  S
C445        C446   1.404       .  A
C445        C450   1.407       .  A
C445        H452   1.083       .  S
C446        C447   1.421       .  A
C447        C448   1.408       .  A
C447        N454   1.438       .  S
C448        C449   1.398       .  A
C448        H453   1.084       .  S
C449        C450   1.411       .  A
C450        N451   1.438       .  S
N451        H455   1.046       .  S
N451        H456   1.046       .  S
N454        H457   1.046       .  S
N454        H458   1.046       .  S
C459        C460   1.399       .  A
C459        C464   1.402       .  A
C459        H466   1.084       .  S
C460        C461   1.421       .  A
C461        C462   1.411       .  A
C461        N468   1.437       .  S
C462        C463   1.400       .  A
C462        H467   1.083       .  S
C463        C464   1.419       .  A
C464        N465   1.439       .  S
N465        H469   1.046       .  S
N465        H470   1.046       .  S
N468        H471   1.045       .  S
N468        H472   1.046       .  S
C473        C474   1.401   1_655  A
C473        C478   1.396   1_655  A
C473        H480   1.085       .  S
C474        C475   1.403       .  A
C475        C476   1.404       .  A
C475        N482   1.437       .  S
C476        C477   1.405       .  A
C476        H481   1.084       .  S
C477        C478   1.412       .  A
C478        N479   1.438       .  S
N479        H483   1.046   1_455  S
N479        H484   1.044       .  S
N482        H485   1.046       .  S
N482        H486   1.046       .  S
C487        C488   1.400       .  A
C487        C492   1.411       .  A
C487        H494   1.083       .  S
C488        C489   1.419       .  A
C489        C490   1.399       .  A
C489        N496   1.435   1_545  S
C490        C491   1.393       .  A
C490        H495   1.084       .  S
C491        C492   1.422       .  A
C492        N493   1.438       .  S
N493        H497   1.046       .  S
N493        H498   1.045       .  S
N496        H499   1.046       .  S
N496        H500   1.045       .  S
C501        C502   1.407       .  A
C501        C506   1.412       .  A
C501        H508   1.083       .  S
C502        C503   1.416       .  A
C503        C504   1.396       .  A
C503        N510   1.439       .  S
C504        C505   1.402       .  A
C504        H509   1.083       .  S
C505        C506   1.414       .  A
C506        N507   1.437       .  S
N507        H511   1.046       .  S
N507        H512   1.046       .  S
N510        H513   1.045       .  S
N510        H514   1.046       .  S
C515        C516   1.403       .  A
C515        C520   1.399       .  A
C515        H522   1.085       .  S
C516        C517   1.411       .  A
C517        C518   1.400       .  A
C517        N524   1.438       .  S
C518        C519   1.404       .  A
C518        H523   1.084       .  S
C519        C520   1.412       .  A
C520        N521   1.439       .  S
N521        H525   1.046       .  S
N521        H526   1.043       .  S
N524        H527   1.044   1_545  S
N524        H528   1.046       .  S
C529        C530   1.403       .  A
C529        C534   1.402       .  A
C529        H536   1.084       .  S
C530        C531   1.415       .  A
C531        C532   1.402       .  A
C531        N538   1.439       .  S
C532        C533   1.402       .  A
C532        H537   1.084       .  S
C533        C534   1.415       .  A
C534        N535   1.439       .  S
N535        H539   1.046       .  S
N535        H540   1.043       .  S
N538        H541   1.043       .  S
N538        H542   1.046       .  S
C543        C544   1.404       .  A
C543        C548   1.406       .  A
C543        H550   1.084       .  S
C544        C545   1.409       .  A
C545        C546   1.404       .  A
C545        N552   1.438       .  S
C546        C547   1.400       .  A
C546        H551   1.075       .  S
C547        C548   1.409       .  A
C548        N549   1.438       .  S
N549        H553   1.046       .  S
N549        H554   1.046       .  S
N552        H555   1.046       .  S
N552        H556   1.046       .  S
C557        C558   1.400       .  A
C557        C562   1.399       .  A
C557        H564   1.084       .  S
C558        C559   1.413       .  A
C559        C560   1.404       .  A
C559        N566   1.432   1_455  S
C560        C561   1.398       .  A
C560        H565   1.084       .  S
C561        C562   1.409       .  A
C562        N563   1.434   1_565  S
N563        H567   1.046       .  S
N563        H568   1.045       .  S
N566        H569   1.046       .  S
N566        H570   1.045   1_655  S
C571        C572   1.400       .  A
C571        C576   1.400       .  A
C571        H578   1.084       .  S
C572        C573   1.427       .  A
C573        C574   1.400       .  A
C573        N580   1.432       .  S
C574        C575   1.397       .  A
C574        H579   1.084       .  S
C575        C576   1.413       .  A
C576        N577   1.431       .  S
N577        H581   1.046   1_655  S
N577        H582   1.045       .  S
N580        H583   1.045       .  S
N580        H584   1.044   1_545  S
C585        C586   1.396       .  A
C585        C590   1.398       .  A
C585        H592   1.084       .  S
C586        C587   1.420       .  A
C587        C588   1.404       .  A
C587        N594   1.439       .  S
C588        C589   1.398       .  A
C588        H593   1.084       .  S
C589        C590   1.413       .  A
C590        N591   1.439       .  S
N591        H595   1.046       .  S
N591        H596   1.046       .  S
N594        H597   1.042       .  S
N594        H598   1.046       .  S
C599        C600   1.405       .  A
C599        C604   1.396       .  A
C599        H606   1.084       .  S
C600        C601   1.417       .  A
C601        C602   1.401   1_554  A
C601        N608   1.438   1_554  S
C602        C603   1.404   1_556  A
C602        H607   1.084       .  S
C603        C604   1.411       .  A
C604        N605   1.438       .  S
N605        H609   1.045       .  S
N605        H610   1.044   1_545  S
N608        H611   1.042       .  S
N608        H612   1.045       .  S
C613        C614   1.400       .  A
C613        C618   1.400       .  A
C613        H620   1.084       .  S
C614        C615   1.412   1_554  A
C615        C616   1.403       .  A
C615        N622   1.432       .  S
C616        C617   1.397       .  A
C616        H621   1.084       .  S
C617        C618   1.410   1_556  A
C618        N619   1.439       .  S
N619        H623   1.046       .  S
N619        H624   1.045       .  S
N622        H625   1.046       .  S
N622        H626   1.045       .  S
C627        C628   1.406       .  A
C627        C632   1.409       .  A
C627        H634   1.084       .  S
C628        C629   1.403       .  A
C629        C630   1.405       .  A
C629        N636   1.438       .  S
C630        C631   1.412       .  A
C630        H635   1.083       .  S
C631        C632   1.412       .  A
C632        N633   1.437       .  S
N633        H637   1.046       .  S
N633        H638   1.046       .  S
N636        H639   1.046       .  S
N636        H640   1.045       .  S
C641        C642   1.406       .  A
C641        C646   1.403       .  A
C641        H648   1.084       .  S
C642        C643   1.416       .  A
C643        C644   1.404       .  A
C643        N650   1.438       .  S
C644        C645   1.400       .  A
C644        H649   1.084       .  S
C645        C646   1.413       .  A
C646        N647   1.438   1_556  S
N647        H651   1.046       .  S
N647        H652   1.043       .  S
N650        H653   1.046       .  S
N650        H654   1.046       .  S
C655        C656   1.410       .  A
C655        C660   1.413   1_455  A
C655        H662   1.083       .  S
C656        C657   1.410       .  A
C657        C658   1.392       .  A
C657        N664   1.433       .  S
C658        C659   1.409   1_455  A
C658        H663   1.084       .  S
C659        C660   1.410       .  A
C660        N661   1.437       .  S
N661        H665   1.046       .  S
N661        H666   1.046       .  S
N664        H667   1.046       .  S
N664        H668   1.044       .  S
C669        C670   1.410       .  A
C669        C674   1.407       .  A
C669        H676   1.084       .  S
C670        C671   1.412       .  A
C671        C672   1.406       .  A
C671        N678   1.438       .  S
C672        C673   1.407       .  A
C672        H677   1.085       .  S
C673        C674   1.414       .  A
C674        N675   1.437       .  S
N675        H679   1.046       .  S
N675        H680   1.043       .  S
N678        H681   1.046       .  S
N678        H682   1.046       .  S
C683        C684   1.401       .  A
C683        C688   1.403       .  A
C683        H690   1.084       .  S
C684        C685   1.420       .  A
C685        C686   1.414       .  A
C685        N692   1.437       .  S
C686        C687   1.400       .  A
C686        H691   1.083       .  S
C687        C688   1.413       .  A
C688        N689   1.434       .  S
N689        H693   1.045       .  S
N689        H694   1.046       .  S
N692        H695   1.046       .  S
N692        H696   1.046       .  S
C697        C698   1.402       .  A
C697        C702   1.406       .  A
C697        H704   1.083       .  S
C698        C699   1.417       .  A
C699        C700   1.402       .  A
C699        N706   1.438       .  S
C700        C701   1.399       .  A
C700        H705   1.084       .  S
C701        C702   1.413       .  A
C702        N703   1.437       .  S
N703        H707   1.045       .  S
N703        H708   1.046       .  S
N706        H709   1.046       .  S
N706        H710   1.046       .  S
C711        C712   1.405       .  A
C711        C716   1.407       .  A
C711        H718   1.083       .  S
C712        C713   1.417       .  A
C713        C714   1.403       .  A
C713        N720   1.438       .  S
C714        C715   1.403       .  A
C714        H719   1.083       .  S
C715        C716   1.416       .  A
C716        N717   1.438       .  S
N717        H721   1.046       .  S
N717        H722   1.045       .  S
N720        H723   1.046       .  S
N720        H724   1.046       .  S
C725        C726   1.403       .  A
C725        C730   1.397       .  A
C725        H732   1.085       .  S
C726        C727   1.410       .  A
C727        C728   1.401       .  A
C727        N734   1.438       .  S
C728        C729   1.405       .  A
C728        H733   1.084       .  S
C729        C730   1.411       .  A
C730        N731   1.438       .  S
N731        H735   1.046       .  S
N731        H736   1.044       .  S
N734        H737   1.044       .  S
N734        H738   1.046       .  S
C739        C740   1.396       .  A
C739        C744   1.403       .  A
C739        H746   1.084       .  S
C740        C741   1.419       .  A
C741        C742   1.401       .  A
C741        N748   1.440       .  S
C742        C743   1.400       .  A
C742        H747   1.084       .  S
C743        C744   1.419       .  A
C744        N745   1.438       .  S
N745        H749   1.046       .  S
N745        H750   1.046       .  S
N748        H751   1.043       .  S
N748        H752   1.046       .  S
C753        C754   1.404       .  A
C753        C758   1.407       .  A
C753        H760   1.084       .  S
C754        C755   1.415       .  A
C755        C756   1.401       .  A
C755        N762   1.438       .  S
C756        C757   1.407       .  A
C756        H761   1.083       .  S
C757        C758   1.413       .  A
C758        N759   1.437       .  S
N759        H763   1.046       .  S
N759        H764   1.046       .  S
N762        H765   1.042       .  S
N762        H766   1.045       .  S
C767        C768   1.408       .  A
C767        C772   1.405       .  A
C767        H774   1.084       .  S
C768        C769   1.415       .  A
C769        C770   1.402       .  A
C769        N776   1.438       .  S
C770        C771   1.403   1_455  A
C770        H775   1.084   1_455  S
C771        C772   1.417   1_655  A
C772        N773   1.439   1_455  S
N773        H777   1.046       .  S
N773        H778   1.041       .  S
N776        H779   1.045       .  S
N776        H780   1.046       .  S
C781        C782   1.410       .  A
C781        C786   1.400       .  A
C781        H788   1.085       .  S
C782        C783   1.416       .  A
C783        C784   1.413       .  A
C783        N790   1.437       .  S
C784        C785   1.412       .  A
C784        H789   1.084       .  S
C785        C786   1.414       .  A
C786        N787   1.433       .  S
N787        H791   1.045       .  S
N787        H792   1.046       .  S
N790        H793   1.042       .  S
N790        H794   1.045       .  S
C795        C796   1.406       .  A
C795        C800   1.409       .  A
C795        H802   1.084       .  S
C796        C797   1.421       .  A
C797        C798   1.410       .  A
C797        N804   1.438       .  S
C798        C799   1.400       .  A
C798        H803   1.084       .  S
C799        C800   1.417       .  A
C800        N801   1.437       .  S
N801        H805   1.045       .  S
N801        H806   1.044   1_565  S
N804        H807   1.045       .  S
N804        H808   1.046       .  S
