geometry optimzed in LAMMPS
_audit_creation_date              2020-11-30 
_audit_creation_method            'lammps2cif' 
_symmetry_space_group_name_H-M    'P1' 
_symmetry_Int_Tables_number       1 
_symmetry_cell_setting            triclinic 
loop_ 
_symmetry_equiv_pos_as_xyz 
  x,y,z 
_cell_length_a                    31.882262902562783 
_cell_length_b                    31.86157203747713 
_cell_length_c                    25.596846825760398 
_cell_angle_alpha                 90.46376589584138 
_cell_angle_beta                  90.4091241335005 
_cell_angle_gamma                 119.9817206016814 
loop_ 
_atom_site_label 
_atom_site_type_symbol 
_atom_site_fract_x 
_atom_site_fract_y 
_atom_site_fract_z 
_atom_site_charge 
C1          C  0.82886555  0.82512992  0.76319725     0.43080
N2          N  0.80661355  0.74998923  0.76022969     0.01970
C3          C  0.94292628  0.65099949  0.85567651    -0.05900
H4          H  0.02305035  0.76815265  0.71089997     0.07470
C5          C  0.88592265  0.66296830  0.58336937    -0.06250
Co6        Co  0.87479154  0.72870548  0.81987390     0.74180
N7          N  0.95580286  0.74410934  0.75118860    -0.25430
Co8        Co  0.91649795  0.66898113  0.74293801     0.74070
C9          C  0.93914846  0.68985768  0.58226595     0.43190
N10         N  0.78187190  0.65901201  0.64018225     0.01590
N11         N  0.91551831  0.67462201  0.66186298     0.01700
N12         N  0.91486255  0.69119202  0.90282240    -0.46280
H13         H  0.89696889  0.84378058  0.81208619     0.07450
N14         N  0.93925731  0.76699486  0.78008575     0.01980
N15         N  0.87454609  0.59395624  0.73463903     0.01720
C16         C  0.85174669  0.51770677  0.73304388     0.43330
N17         N  0.76511726  0.68039531  0.67133455    -0.24890
C18         C  0.80290453  0.68804005  0.90941450    -0.05810
N19         N  0.79362396  0.78162559  0.74557560    -0.45990
N20         N  0.88601962  0.56175132  0.75127284    -0.46220
C21         C  0.75181024  0.67322363  0.91542806     0.43100
N22         N  0.90185275  0.68795147  0.85326450     0.01970
N23         N  0.72768228  0.60045854  0.74386176    -0.24910
N24         N  0.84789783  0.77014408  0.78673399    -0.25400
N25         N  0.74292566  0.57776379  0.71255108     0.01610
H26         H  0.66348084  0.57592473  0.79027050     0.07500
H27         H  0.78689345  0.50192684  0.67839733     0.07530
N28         N  0.91841278  0.66526412  0.82439140    -0.25450
N29         N  0.87476493  0.65519460  0.63434238    -0.25060
N30         N  0.76776382  0.67185862  0.83374179     0.01970
C31         C  0.00888819  0.82286878  0.75578232     0.43370
C32         C  0.74671811  0.70222761  0.64225097    -0.06310
N33         N  0.83450010  0.57413749  0.70604638    -0.25060
H34         H  0.86008303  0.65036727  0.55126784     0.07520
N35         N  0.96998847  0.81406709  0.78424863    -0.46280
H36         H  0.72951658  0.72177548  0.65688800     0.07510
C37         C  0.67550309  0.52170217  0.74192214     0.43210
C38         C  0.86474468  0.81788590  0.79082790    -0.05810
Co39       Co  0.76587056  0.67544468  0.75230211     0.73820
N40         N  0.77571622  0.66503410  0.58999106    -0.46000
C41         C  0.94092378  0.66865144  0.90879412     0.43470
N42         N  0.73226109  0.66299682  0.86649388    -0.45990
Co43       Co  0.80807682  0.61591004  0.67195376     0.73890
C44         C  0.81775317  0.52638140  0.70217910    -0.06320
C45         C  0.99977445  0.77645932  0.73395514    -0.05880
N46         N  0.80978679  0.68940136  0.85812472    -0.25410
N47         N  0.95447248  0.69534533  0.63239351    -0.46170
H48         H  0.96299079  0.63451470  0.84124617     0.07480
C49         C  0.68532317  0.56792690  0.76438671    -0.06290
Cl50       Cl  0.84119816  0.67209071  0.74661429    -0.49300
C51         C  0.75392214  0.69214485  0.58868241     0.43230
H52         H  0.83178660  0.70256121  0.93812094     0.07450
N53         N  0.71235363  0.53046728  0.70982074    -0.46010
C54         C  0.94359725  0.26079279  0.58718302     0.43080
N55         N  0.92186415  0.24405484  0.66678122     0.01970
C56         C  0.78533320  0.01321108  0.76853374    -0.05900
H57         H  0.69069981  0.04439228  0.64438394     0.07470
C58         C  0.72484237  0.20193621  0.77849258    -0.06250
Co59       Co  0.87019089  0.13724537  0.68295750     0.74180
N60         N  0.76398398  0.09512997  0.66885282    -0.25430
Co61       Co  0.76447382  0.09785245  0.75100575     0.74070
C62         C  0.68156644  0.16687085  0.74980072     0.43190
N63         N  0.84840565  0.27217001  0.77775888     0.01590
N64         N  0.73215201  0.14099518  0.75342980     0.01700
N65         N  0.85457299  0.04080772  0.72289672    -0.46280
H66         H  0.90445704  0.18037050  0.56318670     0.07450
N67         N  0.80533366  0.11353009  0.64382099     0.01980
N68         N  0.76757807  0.10036411  0.83234738     0.01720
C69         C  0.75472344  0.07762049  0.91240214     0.43330
N70         N  0.88796790  0.28696772  0.74991626    -0.24890
C71         C  0.96329619  0.14256944  0.72693033    -0.05810
N72         N  0.94878818  0.28041301  0.63540610    -0.45990
N73         N  0.74739634  0.06179862  0.86239827    -0.46220
C74         C  0.00657963  0.17913558  0.75452356     0.43100
N75         N  0.83935539  0.07253153  0.72347964     0.01970
N76         N  0.92524003  0.24849326  0.82781433    -0.24910
N77         N  0.90139999  0.20172533  0.64243128    -0.25400
N78         N  0.88695402  0.23564985  0.85695144     0.01610
H79         H  0.00100947  0.28253006  0.84259361     0.07500
H80         H  0.79341184  0.15725681  0.94207527     0.07650
N81         N  0.79882570  0.05718573  0.74944198    -0.25450
N82         N  0.75340286  0.18243999  0.77982653    -0.25060
N83         N  0.95630000  0.20468837  0.74695666     0.01970
C84         C  0.75230310  0.07242064  0.58413491     0.43370
C85         C  0.89995132  0.33011054  0.72935032    -0.06310
N86         N  0.78847802  0.14159704  0.85922642    -0.25060
H87         H  0.73243815  0.23537975  0.79777447     0.07520
N88         N  0.79979404  0.10150520  0.59390459    -0.46280
H89         H  0.93146677  0.35197456  0.70593548     0.07510
C90         C  0.94848823  0.27138378  0.90961963     0.43210
C91         C  0.91243431  0.20864970  0.59179060    -0.05810
Co92       Co  0.92334081  0.24672292  0.74769729     0.73820
N93         N  0.83224178  0.30314882  0.77759743    -0.46000
C94         C  0.82261672  0.00270556  0.75094339     0.43470
N95         N  0.99979294  0.21679352  0.76558722    -0.45990
Co96       Co  0.81898885  0.20816918  0.81975336     0.73890
C97         C  0.78216652  0.13097632  0.91046411    -0.06320
C98         C  0.72807159  0.06848028  0.63426504    -0.05880
N99         N  0.93481252  0.16201789  0.72333955    -0.25410
N100        N  0.68855313  0.12981178  0.73556052    -0.46170
H101        H  0.75250117  0.99066378  0.78976269     0.07480
C102        C  0.96500214  0.26882724  0.85750260    -0.06290
Cl103      Cl  0.84416510  0.17253568  0.75034173    -0.49300
C104        C  0.86261991  0.34045707  0.74762784     0.43230
H105        H  0.95593903  0.10853120  0.70936226     0.07450
N106        N  0.89932068  0.24940993  0.90649102    -0.46010
C107        C  0.07617935  0.74852325  0.40990572     0.43080
N108        N  0.10006751  0.76065223  0.33012374     0.01970
C109        C  0.33007248  0.89415381  0.22846337    -0.05900
H110        H  0.28434070  0.99653382  0.34345176     0.07470
C111        C  0.14515449  0.96057204  0.22155240    -0.06250
Co112      Co  0.20781120  0.81315724  0.31939182     0.74180
N113        N  0.24839711  0.91987486  0.32649270    -0.25430
Co114      Co  0.24653479  0.91702028  0.24577256     0.74070
C115        C  0.18195970  0.00294355  0.25083796     0.43190
N116        N  0.07173830  0.83194971  0.22185511     0.01590
N117        N  0.20431443  0.94981317  0.24472038     0.01700
N118        N  0.30569073  0.82932839  0.27999578    -0.46280
H119        H  0.15554381  0.78780994  0.44052823     0.07450
N120        N  0.23278003  0.88114272  0.35588902     0.01980
N121        N  0.24382981  0.91527438  0.16427999     0.01720
C122        C  0.26159674  0.93804207  0.08468646     0.43330
N123        N  0.05752628  0.79096569  0.24665379    -0.24890
C124        C  0.20038477  0.71615776  0.28157430    -0.05810
N125        N  0.06107516  0.74065204  0.35960508    -0.45990
N126        N  0.28047435  0.94228168  0.13317743    -0.46220
C127        C  0.16594768  0.67401449  0.25068572     0.43100
N128        N  0.27325869  0.84367258  0.27858047     0.01970
N129        N  0.09830737  0.75749983  0.16707065    -0.24910
N130        N  0.14082037  0.78199393  0.35763538    -0.25400
N131        N  0.11262350  0.79790074  0.14103756     0.01610
H132        H  0.05759421  0.68221044  0.14382182     0.07500
H133        H  0.18131149  0.90024737  0.06028843     0.07530
N134        N  0.28697279  0.88197265  0.24907983    -0.25450
N135        N  0.16218858  0.92968901  0.21993132    -0.25060
N136        N  0.14260994  0.72650721  0.25208394     0.01970
C137        C  0.26241673  0.94158512  0.40947392     0.43370
C138        C  0.01347277  0.77557760  0.26632412    -0.06310
N139        N  0.20161865  0.89551759  0.13958203    -0.25060
H140        H  0.11278280  0.95529578  0.20168732     0.07520
N141        N  0.24082604  0.89259223  0.40645818    -0.46280
H142        H  0.99212637  0.74233544  0.28738325     0.07510
C143        C  0.07946431  0.74152687  0.08216888     0.43210
C144        C  0.12954168  0.77606167  0.40866514    -0.05810
Co145      Co  0.09930162  0.75808288  0.24874793     0.73820
N146        N  0.03892784  0.84587393  0.22323792    -0.46000
C147        C  0.34328442  0.85926201  0.24951495     0.43470
N148        N  0.13065750  0.68268624  0.23445064    -0.45990
Co149      Co  0.13654999  0.86386914  0.18012923     0.73890
C150        C  0.20922106  0.90747370  0.08905325    -0.06320
C151        C  0.26747941  0.95957450  0.35685078    -0.05880
N152        N  0.18300831  0.74673391  0.28026207    -0.25410
N153        N  0.21749971  0.99349509  0.26348256    -0.46170
H154        H  0.34915539  0.92441421  0.20291719     0.07480
C155        C  0.07705109  0.72000511  0.13321898    -0.06290
Cl156      Cl  0.17269653  0.83792188  0.24841674    -0.49300
C157        C  0.00155320  0.81224440  0.25120618     0.43230
H158        H  0.23096735  0.72128305  0.30434602     0.07450
N159        N  0.10136330  0.78987564  0.09069507    -0.46010
C160        C  0.49741455  0.33788326  0.75794750     0.43080
N161        N  0.42174101  0.28559163  0.75984751     0.01970
C162        C  0.31963885  0.05215968  0.85731655    -0.05900
H163        H  0.43966766  0.08925118  0.70713015     0.07470
C164        C  0.31449415  0.10793521  0.59055328    -0.06250
Co165      Co  0.40315882  0.19888802  0.82307493     0.74180
N166        N  0.41566357  0.13148171  0.75083770    -0.25430
Co167      Co  0.33997831  0.09437915  0.74696247     0.74070
C168        C  0.33466978  0.07601544  0.58433705     0.43190
N169        N  0.32076114  0.21300272  0.64738224     0.01590
N170        N  0.33952773  0.09720351  0.66526539     0.01700
N171        N  0.36102334  0.11922693  0.90814679    -0.46280
H172        H  0.51723725  0.28989503  0.80694594     0.07450
N173        N  0.43907494  0.17123348  0.77979379     0.01980
N174        N  0.26458442  0.06010392  0.74452291     0.01720
C175        C  0.18829513  0.00818148  0.74929337     0.43330
N176        N  0.34528685  0.25350843  0.67469491    -0.24890
C177        C  0.36261383  0.23430690  0.91485130    -0.05810
N178        N  0.45314062  0.32923829  0.74256536    -0.45990
N179        N  0.23316791  0.01699857  0.76291834    -0.46220
C180        C  0.33787576  0.26252181  0.91748924     0.43100
N181        N  0.36277189  0.13048910  0.85795634     0.01970
N182        N  0.27120592  0.21516903  0.75363811    -0.24910
N183        N  0.44276867  0.26557712  0.78638636    -0.25400
N184        N  0.24716316  0.17423860  0.72687371     0.01610
H185        H  0.24839142  0.25907098  0.79589896     0.07500
H186        H  0.16974350  0.05656837  0.69826495     0.07530
N187        N  0.33936840  0.09162420  0.82775822    -0.25450
N188        N  0.31805693  0.11818031  0.64164105    -0.25060
N189        N  0.34601926  0.24896469  0.83736757     0.01970
C190        C  0.49531708  0.15948255  0.75035659     0.43370
C191        C  0.35807833  0.29103287  0.64247912    -0.06310
N192        N  0.24324757  0.08022286  0.71927358    -0.25060
H193        H  0.29368907  0.11566099  0.56263735     0.07520
N194        N  0.48637900  0.18897293  0.78040900    -0.46280
H195        H  0.37603642  0.32857105  0.65486019     0.07510
C196        C  0.19193524  0.18715290  0.75627826     0.43210
C197        C  0.49067201  0.29586424  0.78701571    -0.05810
Co198      Co  0.34651774  0.25180708  0.75628780     0.73820
N199        N  0.31453686  0.22069434  0.59810339    -0.46000
C200        C  0.33448475  0.07011405  0.91059419     0.43470
N201        N  0.32885490  0.27023350  0.86817122    -0.45990
Co202      Co  0.28221881  0.14646745  0.68327959     0.73890
C203        C  0.19543050  0.05014341  0.71927118    -0.06320
C204        C  0.44819537  0.12096232  0.73061474    -0.05880
N205        N  0.36630436  0.22792496  0.86342490    -0.25410
N206        N  0.34874188  0.07040222  0.63254354    -0.46170
H207        H  0.29891245  0.01531633  0.84271269     0.07480
C208        C  0.23932227  0.22650854  0.77376324    -0.06290
Cl209      Cl  0.34313355  0.17296174  0.75234694    -0.49300
C210        C  0.33694063  0.26903343  0.59116623     0.43230
H211        H  0.37778747  0.22318217  0.94608476     0.07450
N212        N  0.19992347  0.15639589  0.72743953    -0.46010
C213        C  0.07097118  0.32134354  0.40944622     0.43080
N214        N  0.13172617  0.35267456  0.35733468     0.01970
C215        C  0.10999197  0.31720924  0.08851337    -0.05900
H216        H  0.06429371  0.16548501  0.19137901     0.07470
C217        C  0.23463420  0.23889685  0.26129294    -0.06250
Co218      Co  0.09627040  0.33320218  0.24657285     0.74180
N219        N  0.08533979  0.23894652  0.21288880    -0.25430
Co220      Co  0.15092790  0.28122823  0.17668944     0.74070
C221        C  0.19700403  0.19158390  0.24204449     0.43190
N222        N  0.25195884  0.34019948  0.33222400     0.01590
N223        N  0.18094430  0.24554627  0.21587581     0.01700
N224        N  0.07369998  0.34988624  0.13605091    -0.46280
H225        H  0.01764528  0.28384873  0.34047463     0.07450
N226        N  0.06377350  0.25834247  0.23925665     0.01980
N227        N  0.21721746  0.32370247  0.14109723     0.01720
C228        C  0.27353118  0.33819005  0.08596271     0.43330
N229        N  0.22985155  0.35842651  0.35981629    -0.24890
C230        C  0.11879216  0.44021353  0.23528275    -0.05810
N231        N  0.11987362  0.35007928  0.40732401    -0.45990
N232        N  0.22525834  0.31775266  0.09176275    -0.46220
C233        C  0.15593549  0.48725767  0.25607967     0.43100
N234        N  0.09960992  0.33745000  0.16596295     0.01970
N235        N  0.26532678  0.43813704  0.28618455    -0.24910
N236        N  0.09339376  0.32835453  0.32682936    -0.25400
N237        N  0.28680943  0.41928276  0.25850303     0.01610
H238        H  0.28497320  0.51135644  0.30670247     0.07500
H239        H  0.33198919  0.37069390  0.15064376     0.07530
N240        N  0.12037036  0.31735267  0.13925050    -0.25450
N241        N  0.22127317  0.26984906  0.24355491    -0.25060
N242        N  0.17010031  0.43231130  0.28386504     0.01970
C243        C  0.01371120  0.18208484  0.24002158     0.43370
C244        C  0.23493045  0.35164161  0.41070907    -0.06310
N245        N  0.25753747  0.34657731  0.16917291    -0.25060
H246        H  0.26736279  0.24884242  0.28326848     0.07520
N247        N  0.02041065  0.22557355  0.25583618    -0.46280
H248        H  0.22108852  0.36350271  0.44249287     0.07510
C249        C  0.33597716  0.49583833  0.25737778     0.43210
C250        C  0.05391847  0.30600659  0.35593624    -0.05810
Co251      Co  0.19953824  0.39587980  0.32305162     0.73820
N252        N  0.27290344  0.32180362  0.36175880    -0.46000
C253        C  0.07900009  0.33878113  0.08653401     0.43470
N254        N  0.18626352  0.47949530  0.28606653    -0.45990
Co255      Co  0.25543651  0.34451588  0.25091769     0.73890
C256        C  0.29511475  0.35760836  0.13758299    -0.06320
C257        C  0.05672550  0.19084982  0.21161908    -0.05880
N258        N  0.13074036  0.40847902  0.25449083    -0.25410
N259        N  0.16509680  0.19847966  0.21394455    -0.46170
H260        H  0.11820720  0.29904359  0.05776472     0.07480
C261        C  0.29321486  0.48632174  0.28682593    -0.06290
Cl262      Cl  0.17561822  0.33879972  0.24924900    -0.49300
C263        C  0.26402918  0.32748985  0.41205419     0.43230
H264        H  0.08765531  0.43135298  0.21067406     0.07450
N265        N  0.32957153  0.45255013  0.24106705    -0.46010
C266        C  0.82517728  0.82003753  0.24553808     0.43080
N267        N  0.75030062  0.79842351  0.23755589     0.01970
C268        C  0.66476491  0.94384965  0.13495485    -0.05900
H269        H  0.77702903  0.01956200  0.28652244     0.07470
C270        C  0.66076497  0.88348913  0.40686626    -0.06250
Co271      Co  0.73483772  0.86892623  0.17578709     0.74180
N272        N  0.75113210  0.95153506  0.24517573    -0.25430
Co273      Co  0.67566607  0.91490143  0.24800677     0.74070
C274        C  0.68696229  0.93622081  0.40950709     0.43190
N275        N  0.65836468  0.77916869  0.35170677     0.01590
N276        N  0.67794345  0.91402944  0.32938842     0.01700
N277        N  0.70361418  0.91287096  0.08968617    -0.46280
H278        H  0.84878941  0.88960361  0.19883707     0.07450
N279        N  0.77340953  0.93317490  0.21816297     0.01980
N280        N  0.59986613  0.87465356  0.25107438     0.01720
C281        C  0.52336913  0.85079456  0.24685301     0.43330
N282        N  0.67961595  0.76127917  0.32212657    -0.24890
C283        C  0.69440181  0.79482360  0.08426687    -0.05810
N284        N  0.78005685  0.78460365  0.25673517    -0.45990
N285        N  0.56795854  0.88567776  0.23154004    -0.46220
C286        C  0.67400729  0.74234675  0.07892054     0.43100
N287        N  0.69736816  0.89857852  0.13885467     0.01970
N288        N  0.60038839  0.72428035  0.24612336    -0.24910
N289        N  0.77302646  0.84019462  0.21332853    -0.25400
N290        N  0.57914302  0.74281710  0.27457067     0.01610
H291        H  0.57293176  0.65611479  0.20464645     0.07500
H292        H  0.50663314  0.78723483  0.30230397     0.07530
N293        N  0.67530786  0.91678511  0.16649001    -0.25450
N294        N  0.65676789  0.87312336  0.35553691    -0.25060
N295        N  0.67315443  0.76155285  0.15976840     0.01970
C296        C  0.83082458  0.00160898  0.24627868     0.43370
C297        C  0.70198765  0.74443996  0.35264894    -0.06310
N298        N  0.57910013  0.83490592  0.27900470    -0.25060
H299        H  0.64512639  0.85751441  0.43792691     0.07520
N300        N  0.82084678  0.96197770  0.21757466    -0.46280
H301        H  0.72193248  0.72721173  0.33941305     0.07510
C302        C  0.52053715  0.67471704  0.24735154     0.43210
C303        C  0.82083008  0.85683222  0.21637734    -0.05810
Co304      Co  0.67554830  0.76037090  0.24117861     0.73820
N305        N  0.66445048  0.77468234  0.40237100    -0.46000
C306        C  0.68307560  0.94071866  0.08365057     0.43470
N307        N  0.66165522  0.72438427  0.12764618    -0.45990
Co308      Co  0.61797387  0.80719972  0.31632980     0.73890
C309        C  0.53147624  0.81790227  0.27958264    -0.06320
C310        C  0.78450151  0.99491552  0.26461840    -0.05880
N311        N  0.69455063  0.80336027  0.13544492    -0.25410
N312        N  0.69663702  0.95279039  0.36033456    -0.46170
H313        H  0.65162891  0.96760105  0.14772642     0.07480
C314        C  0.56624562  0.68093815  0.22727931    -0.06290
Cl315      Cl  0.67594185  0.83789254  0.24521584    -0.49300
C316        C  0.69212564  0.75350129  0.40548732     0.43230
H317        H  0.71410362  0.82239702  0.05558506     0.07450
N318        N  0.53173692  0.71455171  0.27615706    -0.46010
C319        C  0.87796573  0.04756679  0.24516341    -0.04710
C320        C  0.89702229  0.07659511  0.29078427    -0.01830
C321        C  0.94150409  0.12058763  0.28916717     0.03160
C322        C  0.96692056  0.13608476  0.24182388    -0.04710
C323        C  0.94740685  0.10760007  0.19597185    -0.01820
C324        C  0.90375865  0.06312506  0.19781546     0.03160
C325        C  0.87186049  0.06061371  0.33993415     0.37810
C326        C  0.97058071  0.12508463  0.14592296     0.37800
C327        C  0.88505067  0.03439778  0.15009634     0.36220
C328        C  0.96167379  0.14936642  0.33657300     0.36220
N329        N  0.87047883  0.01162482  0.11196645    -0.38600
N330        N  0.97780558  0.17233435  0.37433949    -0.38600
N331        N  0.98873035  0.13894798  0.10589948    -0.38040
N332        N  0.85205053  0.04825252  0.37934184    -0.38050
C333        C  0.47269217  0.62950748  0.24919662    -0.04710
C334        C  0.44591749  0.61658824  0.29609483    -0.01830
C335        C  0.40129936  0.57316159  0.29871791     0.03160
C336        C  0.38239934  0.54232502  0.25432084    -0.04710
C337        C  0.40863359  0.55551970  0.20730220    -0.01820
C338        C  0.45355393  0.59893685  0.20470062     0.03160
C339        C  0.46461729  0.64684161  0.34284794     0.37810
C340        C  0.38873574  0.52503486  0.16102284     0.37800
C341        C  0.47900780  0.61287786  0.15553849     0.36220
C342        C  0.37644933  0.55955147  0.34836795     0.36220
N343        N  0.49912917  0.62393156  0.11619726    -0.38600
N344        N  0.35700954  0.54920419  0.38815117    -0.38600
N345        N  0.37262599  0.50060165  0.12423261    -0.38040
N346        N  0.47914712  0.67086575  0.38015766    -0.38050
C347        C  0.28538872  0.31510269  0.45789187    -0.04710
C348        C  0.29875577  0.34299547  0.50483346    -0.01830
C349        C  0.31663622  0.32930540  0.54848768     0.03160
C350        C  0.32534938  0.28986342  0.54451813    -0.04710
C351        C  0.31645687  0.26517221  0.49592525    -0.01820
C352        C  0.29430714  0.27582136  0.45418636     0.03160
C353        C  0.29551996  0.38674548  0.50853791     0.37810
C354        C  0.32993491  0.22814722  0.48852721     0.37800
C355        C  0.27800188  0.24354576  0.40901059     0.36220
C356        C  0.32369933  0.35507637  0.59761677     0.36220
N357        N  0.26482577  0.21620492  0.37437731    -0.38600
N358        N  0.32871355  0.37617929  0.63635147    -0.38600
N359        N  0.34076906  0.19878095  0.48250992    -0.38040
N360        N  0.29347852  0.42192588  0.51204257    -0.38050
C361        C  0.32558509  0.28197209  0.96402630    -0.04710
C362        C  0.28896371  0.25010691  0.99767452    -0.01830
C363        C  0.27395744  0.26856909  0.03926888     0.03160
C364        C  0.29400653  0.31929046  0.04618513    -0.04710
C365        C  0.33155361  0.35117559  0.01321831    -0.01820
C366        C  0.34735872  0.33256522  0.97227409     0.03160
C367        C  0.26410875  0.19831699  0.98715866     0.37810
C368        C  0.35276259  0.40308742  0.02011431     0.37800
C369        C  0.38563516  0.36549856  0.93810886     0.36220
C370        C  0.23778148  0.23493825  0.07488961     0.36220
N371        N  0.41616946  0.39173847  0.91083850    -0.38600
N372        N  0.20894045  0.20776596  0.10305205    -0.38600
N373        N  0.36988160  0.44460178  0.02511174    -0.38040
N374        N  0.24366347  0.15709005  0.97828655    -0.38050
C375        C  0.28603105  0.97414910  0.04297395    -0.04710
C376        C  0.30184296  0.96123514  0.99766619    -0.01830
C377        C  0.32076953  0.99382919  0.95572188     0.03160
C378        C  0.32337231  0.03966994  0.95843457    -0.04710
C379        C  0.31120591  0.05392315  0.00579479    -0.01820
C380        C  0.29145705  0.02083496  0.04728472     0.03160
C381        C  0.29777744  0.91385975  0.99393547     0.37810
C382        C  0.31815508  0.10225212  0.01194488     0.37800
C383        C  0.27388484  0.03377696  0.09321985     0.36220
C384        C  0.33902602  0.98037277  0.91065566     0.36220
N385        N  0.25902476  0.04371279  0.12946334    -0.38600
N386        N  0.35356936  0.96934667  0.87489756    -0.38600
N387        N  0.32452783  0.14108437  0.01758427    -0.38040
N388        N  0.29443859  0.87603422  0.99108607    -0.38050
C389        C  0.31744096  0.03778144  0.54317312    -0.04710
C390        C  0.34969987  0.03798779  0.50571746    -0.01830
C391        C  0.33195947  0.00466706  0.46332081     0.03160
C392        C  0.28163301  0.97211913  0.45731436    -0.04710
C393        C  0.24939878  0.97308851  0.49396162    -0.01820
C394        C  0.26737954  0.00385550  0.53820641     0.03160
C395        C  0.40076632  0.07388013  0.50954666     0.37810
C396        C  0.19783157  0.94753302  0.48261463     0.37800
C397        C  0.23406048  0.00094418  0.57826299     0.36220
C398        C  0.36531508  0.00534759  0.42462934     0.36220
N399        N  0.20748363  0.99826624  0.61036223    -0.38600
N400        N  0.39188379  0.00611244  0.39356892    -0.38600
N401        N  0.15690867  0.92891029  0.47259804    -0.38040
N402        N  0.44145480  0.10276398  0.51231873    -0.38050
C403        C  0.19424260  0.14414649  0.24801540    -0.04710
C404        C  0.23547706  0.13954611  0.23982473    -0.01830
C405        C  0.23241589  0.09409562  0.24476985     0.03160
C406        C  0.18700821  0.05198388  0.25356908    -0.04710
C407        C  0.14597509  0.05697736  0.26238346    -0.01820
C408        C  0.14979946  0.10293906  0.26064274     0.03160
C409        C  0.28038895  0.18077403  0.22257547     0.37810
C410        C  0.09969804  0.01518513  0.27447396     0.37800
C411        C  0.10800150  0.10781793  0.27296089     0.36220
C412        C  0.27626031  0.09130697  0.23948461     0.36220
N413        N  0.07466527  0.11151385  0.28312604    -0.38600
N414        N  0.31156083  0.08964331  0.23566122    -0.38600
N415        N  0.06221389  0.98241599  0.28375333    -0.38040
N416        N  0.31604327  0.21342011  0.20821036    -0.38050
C417        C  0.16246024  0.62573656  0.24943227    -0.04710
C418        C  0.11980328  0.58419508  0.26607659    -0.01830
C419        C  0.11739485  0.53878492  0.26737308     0.03160
C420        C  0.15771893  0.53456841  0.25250358    -0.04710
C421        C  0.20042410  0.57606335  0.23608044    -0.01820
C422        C  0.20250311  0.62132842  0.23377807     0.03160
C423        C  0.07899566  0.58834474  0.28427611     0.37810
C424        C  0.24209134  0.57210703  0.22078526     0.37800
C425        C  0.24515600  0.66291876  0.21314656     0.36220
C426        C  0.07428923  0.49696991  0.28700403     0.36220
N427        N  0.27897562  0.69583070  0.19598595    -0.38600
N428        N  0.04000517  0.46366941  0.30286734    -0.38600
N429        N  0.27540295  0.56906232  0.20872173    -0.38040
N430        N  0.04646363  0.59160967  0.29890383    -0.38050
C431        C  0.38923660  0.85656755  0.24366140    -0.04710
C432        C  0.43270895  0.89539006  0.22311168    -0.01830
C433        C  0.47586288  0.89275444  0.22139414     0.03160
C434        C  0.47651786  0.85103024  0.23896571    -0.04710
C435        C  0.43185426  0.81016702  0.25235417    -0.01820
C436        C  0.39010055  0.81415288  0.25901189     0.03160
C437        C  0.43534490  0.93980049  0.20572533     0.37810
C438        C  0.42701304  0.76245213  0.25615577     0.37800
C439        C  0.34940566  0.77442763  0.28471200     0.36220
C440        C  0.51931803  0.93322346  0.20029656     0.36220
N441        N  0.31871458  0.74245352  0.30685916    -0.38600
N442        N  0.55362708  0.96546620  0.18295199    -0.38600
N443        N  0.42204665  0.72396249  0.25882296    -0.38040
N444        N  0.43966195  0.97609125  0.19130171    -0.38050
C445        C  0.95427219  0.80989959  0.25586089    -0.04710
C446        C  0.95103202  0.84599359  0.28463247    -0.01830
C447        C  0.90887652  0.84970944  0.28107943     0.03160
C448        C  0.86884762  0.81546183  0.25104488    -0.04710
C449        C  0.87038007  0.77634754  0.22660591    -0.01820
C450        C  0.91292740  0.77331938  0.22943516     0.03160
C451        C  0.98936489  0.87616365  0.32146092     0.37810
C452        C  0.82894863  0.74032203  0.19659457     0.37800
C453        C  0.91367783  0.73220949  0.20572904     0.36220
C454        C  0.90644143  0.88824785  0.30890922     0.36220
N455        N  0.91351399  0.69878434  0.18743823    -0.38600
N456        N  0.90456186  0.91907452  0.33103914    -0.38600
N457        N  0.79592942  0.71168150  0.17260252    -0.38040
N458        N  0.01937543  0.89875159  0.35207369    -0.38050
C459        C  0.04436584  0.33019373  0.04341841    -0.04710
C460        C  0.06218688  0.34621814  0.99315339    -0.01830
C461        C  0.03011783  0.33180785  0.95006748     0.03160
C462        C  0.98008720  0.29724873  0.95623032    -0.04710
C463        C  0.96174153  0.28600759  0.00756452    -0.01820
C464        C  0.99379277  0.30258880  0.05103120     0.03160
C465        C  0.11389511  0.37769730  0.98577957     0.37810
C466        C  0.91005982  0.25760347  0.01631039     0.37800
C467        C  0.97455853  0.28902287  0.10325883     0.36220
C468        C  0.04913875  0.35545602  0.90066785     0.36220
N469        N  0.95906109  0.27835529  0.14487022    -0.38600
N470        N  0.06524551  0.37511581  0.86182180    -0.38600
N471        N  0.86883388  0.23568694  0.02371267    -0.38040
N472        N  0.15509376  0.40258374  0.97999359    -0.38050
C473        C  0.04027095  0.31248975  0.45674456    -0.04710
C474        C  0.05830353  0.31150807  0.50725261    -0.01830
C475        C  0.02745842  0.29780649  0.55085521     0.03160
C476        C  0.97814158  0.28377309  0.54419914    -0.04710
C477        C  0.96057568  0.28690837  0.49480397    -0.01820
C478        C  0.99175338  0.30304083  0.45170267     0.03160
C479        C  0.10805665  0.32284975  0.51468108     0.37810
C480        C  0.90991114  0.27300542  0.48832408     0.37800
C481        C  0.97351652  0.31162426  0.40326373     0.36220
C482        C  0.04596679  0.29575559  0.60218561     0.36220
N483        N  0.95814345  0.31831871  0.36511134    -0.38600
N484        N  0.06077116  0.29425814  0.64312964    -0.38600
N485        N  0.86948010  0.26163087  0.48328679    -0.38040
N486        N  0.14772711  0.33196574  0.52103702    -0.38050
C487        C  0.69882834  0.97778165  0.04213492    -0.04710
C488        C  0.67220254  0.96729442  0.99510262    -0.01830
C489        C  0.68940070  0.00070167  0.95370591     0.03160
C490        C  0.73460866  0.04454880  0.95827136    -0.04710
C491        C  0.76106265  0.05491007  0.00588516    -0.01820
C492        C  0.74263294  0.02223894  0.04792638     0.03160
C493        C  0.62707111  0.92172001  0.98926817     0.37810
C494        C  0.80892568  0.09722233  0.01078575     0.37800
C495        C  0.76914258  0.03411196  0.09718792     0.36220
C496        C  0.65985197  0.98963981  0.90668370     0.36220
N497        N  0.78984011  0.04375735  0.13676084    -0.38600
N498        N  0.63608721  0.98054543  0.86929319    -0.38600
N499        N  0.84746436  0.13048732  0.01489939    -0.38040
N500        N  0.59113283  0.88531220  0.98473913    -0.38050
C501        C  0.73461261  0.03631142  0.53990870    -0.04710
C502        C  0.68743074  0.01791414  0.51869047    -0.01830
C503        C  0.67138115  0.98442530  0.47642299     0.03160
C504        C  0.70161137  0.96780973  0.45634328    -0.04710
C505        C  0.74781264  0.98449996  0.47818342    -0.01820
C506        C  0.76509706  0.01973625  0.51843495     0.03160
C507        C  0.65603810  0.03500184  0.53838233     0.37810
C508        C  0.77768544  0.96520812  0.45894818     0.37800
C509        C  0.81485528  0.03909843  0.53608356     0.36220
C510        C  0.62400076  0.96754988  0.45286139     0.36220
N511        N  0.85489210  0.05510544  0.54906415    -0.38600
N512        N  0.58629641  0.95411401  0.43383751    -0.38600
N513        N  0.80120799  0.94948212  0.44383282    -0.38040
N514        N  0.63062233  0.04833803  0.55378901    -0.38050
C515        C  0.14507608  0.18637502  0.75609056    -0.04710
C516        C  0.11641320  0.17285205  0.70980010    -0.01830
C517        C  0.07175129  0.17153422  0.70913554     0.03160
C518        C  0.05454596  0.18250770  0.75502114    -0.04710
C519        C  0.08361170  0.19739556  0.80082694    -0.01820
C520        C  0.12871170  0.19910183  0.80147527     0.03160
C521        C  0.13308287  0.16155010  0.66181469     0.37810
C522        C  0.06681490  0.21028232  0.84756446     0.37800
C523        C  0.15725254  0.21218120  0.84944991     0.36220
C524        C  0.04499764  0.16135789  0.66003818     0.36220
N525        N  0.17997107  0.22259891  0.88774734    -0.38600
N526        N  0.02392689  0.15331237  0.62079668    -0.38600
N527        N  0.05353151  0.22079817  0.88474714    -0.38040
N528        N  0.14596476  0.15222305  0.62353757    -0.38050
C529        C  0.63374169  0.16453710  0.74967052    -0.04710
C530        C  0.61662847  0.17531849  0.79585201    -0.01830
C531        C  0.57213708  0.17462939  0.79560530     0.03160
C532        C  0.54295502  0.16122895  0.74966040    -0.04710
C533        C  0.55977682  0.14987580  0.70363669    -0.01820
C534        C  0.60510249  0.15183115  0.70361117     0.03160
C535        C  0.64347829  0.18515386  0.84480816     0.37810
C536        C  0.53164264  0.13833599  0.65554213     0.37800
C537        C  0.62313055  0.14256956  0.65557620     0.36220
C538        C  0.55640633  0.18690672  0.84362827     0.36220
N539        N  0.63771373  0.13551459  0.61720694    -0.38600
N540        N  0.54440487  0.19720020  0.88191468    -0.38600
N541        N  0.50931077  0.12918326  0.61707627    -0.38040
N542        N  0.66460891  0.19305877  0.88399270    -0.38050
C543        C  0.97309272  0.67844222  0.95644793    -0.04710
C544        C  0.96399052  0.69824269  0.00224371    -0.01830
C545        C  0.99956072  0.72020952  0.04186097     0.03160
C546        C  0.04229162  0.71760685  0.04015984    -0.04710
C547        C  0.04930827  0.69291147  0.99839873    -0.01820
C548        C  0.01553965  0.67413926  0.95614472     0.03160
C549        C  0.91770080  0.69568339  0.01009563     0.37810
C550        C  0.09245695  0.68849412  0.99812755     0.37800
C551        C  0.02582147  0.65093244  0.91326749     0.36220
C552        C  0.99323760  0.74790667  0.08327956     0.36220
N553        N  0.03571479  0.63260012  0.88012491    -0.38600
N554        N  0.98929367  0.77132583  0.11549674    -0.38600
N555        N  0.12685844  0.68495548  0.99803423    -0.38040
N556        N  0.88100434  0.69371749  0.01754150    -0.38050
C557        C  0.97283458  0.70501910  0.53691835    -0.04710
C558        C  0.01715303  0.74943439  0.53960578    -0.01830
C559        C  0.05233918  0.76181486  0.50048152     0.03160
C560        C  0.04216516  0.73227602  0.45530673    -0.04710
C561        C  0.99742939  0.68793151  0.45227499    -0.01820
C562        C  0.96351365  0.67399528  0.49322518     0.03160
C563        C  0.02608896  0.78391113  0.58163137     0.37810
C564        C  0.98706619  0.65494490  0.40832502     0.37800
C565        C  0.92019191  0.62657370  0.49121089     0.36220
C566        C  0.09934963  0.80459249  0.50815606     0.36220
N567        N  0.88586065  0.58857078  0.48948175    -0.38600
N568        N  0.13719209  0.83789018  0.51615816    -0.38600
N569        N  0.97864280  0.62844706  0.37344492    -0.38040
N570        N  0.03338178  0.81205950  0.61441053    -0.38050
C571        C  0.82654468  0.87004201  0.76035275    -0.04710
C572        C  0.83013002  0.89150848  0.71156195    -0.01830
C573        C  0.82807167  0.93449486  0.70845020     0.03160
C574        C  0.82242349  0.95626262  0.75423353    -0.04710
C575        C  0.81741786  0.93386804  0.80297449    -0.01820
C576        C  0.81959932  0.89083195  0.80601039     0.03160
C577        C  0.83661908  0.86964322  0.66455294     0.37810
C578        C  0.81108761  0.95554556  0.85016517     0.37800
C579        C  0.81338776  0.86721341  0.85587766     0.36220
C580        C  0.82991953  0.95504611  0.65765862     0.36220
N581        N  0.80819220  0.84822259  0.89559087    -0.38600
N582        N  0.83115437  0.97076673  0.61678343    -0.38600
N583        N  0.80591769  0.97274641  0.88780627    -0.38040
N584        N  0.84180840  0.85222499  0.62710956    -0.38050
C585        C  0.86048068  0.38573384  0.74271319    -0.04710
C586        C  0.81662233  0.38326930  0.72800038    -0.01830
C587        C  0.81278426  0.42555745  0.72746399     0.03160
C588        C  0.85393853  0.47173899  0.73859772    -0.04710
C589        C  0.89772262  0.47353163  0.75477716    -0.01820
C590        C  0.90065874  0.43078802  0.75707840     0.03160
C591        C  0.77527011  0.33691630  0.71251048     0.37810
C592        C  0.94017446  0.51886009  0.77043632     0.37800
C593        C  0.94460368  0.43304512  0.77678759     0.36220
C594        C  0.76524186  0.41994932  0.71876087     0.36220
N595        N  0.97955197  0.43491542  0.79279955    -0.38600
N596        N  0.72673082  0.41419150  0.71220201    -0.38600
N597        N  0.97418379  0.55465379  0.78344800    -0.38040
N598        N  0.74245780  0.30003923  0.69988790    -0.38050
C599        C  0.05461980  0.87013540  0.75595279    -0.04710
C600        C  0.05332373  0.91314561  0.74756822    -0.01830
C601        C  0.09636374  0.95846887  0.74999178     0.03160
C602        C  0.14198003  0.96112838  0.75645278    -0.04710
C603        C  0.14262910  0.91786202  0.76793071    -0.01820
C604        C  0.09913690  0.87284190  0.76815501     0.03160
C605        C  0.00763802  0.91083235  0.73514899     0.37810
C606        C  0.18752423  0.91884741  0.78079871     0.37800
C607        C  0.10015531  0.82954027  0.78337479     0.36220
C608        C  0.09243219  0.00192098  0.74940185     0.36220
N609        N  0.10095058  0.79510573  0.79585099    -0.38600
N610        N  0.08846091  0.03611600  0.74941647    -0.38600
N611        N  0.22298553  0.91914137  0.79162984    -0.38040
N612        N  0.97134361  0.90904437  0.72493778    -0.38050
C613        C  0.63005813  0.47466162  0.74603932    -0.04710
C614        C  0.60192173  0.45167202  0.70083871    -0.01830
C615        C  0.55827400  0.40715444  0.70479357     0.03160
C616        C  0.54265698  0.38527034  0.75394348    -0.04710
C617        C  0.57035656  0.40885452  0.79932410    -0.01820
C618        C  0.61393324  0.45338983  0.79533097     0.03160
C619        C  0.61699042  0.47474224  0.65045273     0.37810
C620        C  0.55317167  0.38840101  0.85048583     0.37800
C621        C  0.64257275  0.47693426  0.84197080     0.36220
C622        C  0.52982711  0.38352601  0.65809989     0.36220
N623        N  0.66534930  0.49563483  0.87921318    -0.38600
N624        N  0.50712295  0.36472705  0.62084853    -0.38600
N625        N  0.53933974  0.37211292  0.89126115    -0.38040
N626        N  0.62906880  0.49342998  0.61041534    -0.38050
C627        C  0.69311066  0.72115483  0.04028543    -0.04710
C628        C  0.74358572  0.74374867  0.03303293    -0.01830
C629        C  0.76227513  0.73068336  0.99042944     0.03160
C630        C  0.73162595  0.68897464  0.95935890    -0.04710
C631        C  0.68125412  0.66364514  0.96963448    -0.01820
C632        C  0.66199402  0.68051754  0.00902302     0.03160
C633        C  0.77710884  0.78044339  0.06986621     0.37810
C634        C  0.64898594  0.62061537  0.93927136     0.37800
C635        C  0.61018391  0.65642222  0.01697346     0.36220
C636        C  0.81226091  0.76395289  0.97690201     0.36220
N637        N  0.56876865  0.63710086  0.02305755    -0.38600
N638        N  0.85205212  0.79141446  0.96679391    -0.38600
N639        N  0.62320388  0.58630546  0.91501645    -0.38040
N640        N  0.80416183  0.80951966  0.09899348    -0.38050
C641        C  0.73808516  0.70679140  0.54103383    -0.04710
C642        C  0.77249769  0.74451521  0.51005861    -0.01830
C643        C  0.75726520  0.76068085  0.46655019     0.03160
C644        C  0.70746947  0.73931043  0.45389099    -0.04710
C645        C  0.67304097  0.70124517  0.48463342    -0.01820
C646        C  0.68830931  0.68509996  0.52819995     0.03160
C647        C  0.82356065  0.76725580  0.52362065     0.37810
C648        C  0.62213150  0.67729762  0.47004597     0.37800
C649        C  0.65292707  0.64515101  0.55892544     0.36220
C650        C  0.79284969  0.79983558  0.43514080     0.36220
N651        N  0.62473726  0.61311934  0.58328336    -0.38600
N652        N  0.82118403  0.83109364  0.41007136    -0.38600
N653        N  0.58158076  0.65806664  0.45812109    -0.38040
N654        N  0.86423874  0.78529818  0.53466914    -0.38050
loop_ 
_geom_bond_atom_site_label_1 
_geom_bond_atom_site_label_2 
_geom_bond_distance 
_geom_bond_site_symmetry_2 
_ccdc_geom_bond_type 
C1           N19   1.347       .  A
C1           C38   1.455       .  S
C1          C571   1.472       .  S
N2           N19   1.323       .  A
N2           N24   1.319       .  A
N2          Co39   2.068       .  S
C3           N28   1.346       .  A
C3           C41   1.481       .  S
C3           H48   1.076       .  S
H4           C45   1.081   1_455  S
C5           N29   1.347       .  A
C5            C9   1.471       .  S
C5           H34   1.081       .  S
Co6          N24   2.083       .  S
Co6          N14   2.072       .  S
Co6          N46   2.068       .  S
Co6          N22   2.071       .  S
Co6         Cl50   2.430       .  S
N7           C45   1.340       .  A
N7           N14   1.318       .  A
N7           Co8   2.082       .  S
Co8          N11   2.086       .  S
Co8          N28   2.091       .  S
Co8          N15   2.083       .  S
Co8         Cl50   2.454       .  S
C9           N47   1.348       .  A
C9          C557   1.498       .  S
N10          N17   1.322       .  A
N10          N40   1.328       .  A
N10         Co43   2.098       .  S
N11          N29   1.320       .  A
N11          N47   1.323       .  A
N12          C41   1.351       .  A
N12          N22   1.319       .  A
H13          C38   1.082       .  S
N14          N35   1.322       .  A
N15          N33   1.318       .  A
N15          N20   1.322       .  A
C16          N20   1.353       .  A
C16          C44   1.472       .  S
C16         C588   1.509       .  S
N17          C32   1.339       .  A
N17         Co39   2.081       .  S
C18          N46   1.330       .  A
C18          C21   1.462       .  S
C18          H52   1.077       .  S
C21          N42   1.358       .  A
C21         C630   1.501       .  S
N22          N28   1.314       .  A
N23          C49   1.339       .  A
N23          N25   1.322       .  A
N23         Co39   2.078       .  S
N24          C38   1.339       .  A
N25          N53   1.325       .  A
N25         Co43   2.098       .  S
H26          C49   1.082       .  S
H27          C44   1.079       .  S
N29         Co43   2.098       .  S
N30          N42   1.327       .  A
N30          N46   1.316       .  A
N30         Co39   2.091       .  S
C31          N35   1.348   1_455  A
C31          C45   1.462   1_455  S
C31         C599   1.483       .  S
C32          C51   1.452       .  S
C32          H36   1.081       .  S
N33          C44   1.340       .  A
N33         Co43   2.091       .  S
C37          N53   1.350       .  A
C37          C49   1.456       .  S
C37         C613   1.480       .  S
Co39        Cl50   2.462       .  S
N40          C51   1.353       .  A
C41         C543   1.514       .  S
Co43        Cl50   2.449       .  S
C51         C641   1.482       .  S
C54          N72   1.350       .  A
C54          C91   1.455       .  S
C54         C476   1.478       .  S
N55          N72   1.325       .  A
N55          N77   1.317       .  A
N55         Co92   2.071       .  S
C56          N81   1.341       .  A
C56          C94   1.460       .  S
C56         H101   1.082   1_545  S
H57          C98   1.081       .  S
C58          N82   1.335       .  A
C58          C62   1.457       .  S
C58          H87   1.081       .  S
Co59         N77   2.072       .  S
Co59         N67   2.061       .  S
Co59         N99   2.066       .  S
Co59         N75   2.078       .  S
Co59       Cl103   2.419       .  S
N60          C98   1.348       .  A
N60          N67   1.318       .  A
N60         Co61   2.104       .  S
Co61         N64   2.091       .  S
Co61         N81   2.073       .  S
Co61         N68   2.083       .  S
Co61       Cl103   2.465       .  S
C62         N100   1.354       .  A
C62         C529   1.489       .  S
N63          N70   1.321       .  A
N63          N93   1.322       .  A
N63         Co96   2.081       .  S
N64          N82   1.321       .  A
N64         N100   1.327       .  A
N65          C94   1.347       .  A
N65          N75   1.322       .  A
H66          C91   1.082       .  S
N67          N88   1.316       .  A
N68          N86   1.322       .  A
N68          N73   1.322       .  A
C69          N73   1.347       .  A
C69          C97   1.474       .  S
C69         C490   1.502       .  S
N70          C85   1.343       .  A
N70         Co92   2.089       .  S
C71          N99   1.334       .  A
C71          C74   1.458   1_655  S
C71         H105   1.082       .  S
C74          N95   1.350   1_455  A
C74         C518   1.478       .  S
N75          N81   1.318       .  A
N76         C102   1.327       .  A
N76          N78   1.316       .  A
N76         Co92   2.051       .  S
N77          C91   1.337       .  A
N78         N106   1.329       .  A
N78         Co96   2.105       .  S
H79         C102   1.078   1_455  S
H80          C97   1.081       .  S
N82         Co96   2.081       .  S
N83          N95   1.324       .  A
N83          N99   1.316       .  A
N83         Co92   2.075       .  S
C84          N88   1.343       .  A
C84          C98   1.476       .  S
C84         C501   1.498       .  S
C85         C104   1.463       .  S
C85          H89   1.082       .  S
N86          C97   1.348       .  A
N86         Co96   2.110       .  S
C90         N106   1.362       .  A
C90         C102   1.454       .  S
C90         C462   1.502       .  S
Co92       Cl103   2.451       .  S
N93         C104   1.347       .  A
C94         C574   1.480   1_545  S
Co96       Cl103   2.447       .  S
C104        C585   1.484       .  S
C107        N125   1.348       .  A
C107        C144   1.475       .  S
C107        C560   1.504       .  S
N108        N125   1.323       .  A
N108        N130   1.320       .  A
N108       Co145   2.083       .  S
C109        N134   1.341       .  A
C109        C147   1.476       .  S
C109        H154   1.076       .  S
H110        C151   1.082       .  S
C111        N135   1.341       .  A
C111        C115   1.466   1_565  S
C111        H140   1.082       .  S
Co112       N130   2.105       .  S
Co112       N120   2.105       .  S
Co112       N152   2.095       .  S
Co112       N128   2.100       .  S
Co112      Cl156   2.460       .  S
N113        C151   1.335       .  A
N113        N120   1.320       .  A
N113       Co114   2.067       .  S
Co114       N117   2.076       .  S
Co114       N134   2.087       .  S
Co114       N121   2.086       .  S
Co114      Cl156   2.444       .  S
C115        N153   1.348   1_545  A
C115        C406   1.490       .  S
N116        N123   1.319       .  A
N116        N146   1.325       .  A
N116       Co149   2.096       .  S
N117        N135   1.318       .  A
N117        N153   1.321       .  A
N118        C147   1.356       .  A
N118        N128   1.323       .  A
H119        C144   1.081       .  S
N120        N141   1.330       .  A
N121        N139   1.320       .  A
N121        N126   1.326       .  A
C122        N126   1.351       .  A
C122        C150   1.459       .  S
C122        C375   1.485       .  S
N123        C138   1.339       .  A
N123       Co145   2.066       .  S
C124        N152   1.340       .  A
C124        C127   1.460       .  S
C124        H158   1.072       .  S
C127        N148   1.349       .  A
C127        C417   1.486       .  S
N128        N134   1.318       .  A
N129        C155   1.343       .  A
N129        N131   1.319       .  A
N129       Co145   2.090       .  S
N130        C144   1.347       .  A
N131        N159   1.323       .  A
N131       Co149   2.087       .  S
H132        C155   1.082       .  S
H133        C150   1.082       .  S
N135       Co149   2.084       .  S
N136        N148   1.324       .  A
N136        N152   1.321       .  A
N136       Co145   2.077       .  S
C137        N141   1.356       .  A
C137        C151   1.446       .  S
C137        C392   1.482       .  S
C138        C157   1.452       .  S
C138        H142   1.081   1_455  S
N139        C150   1.340       .  A
N139       Co149   2.087       .  S
C143        N159   1.351       .  A
C143        C155   1.465       .  S
C143        C546   1.486       .  S
Co145      Cl156   2.449       .  S
N146        C157   1.352       .  A
C147        C431   1.518       .  S
Co149      Cl156   2.452       .  S
C157        C445   1.477   1_455  S
C160        N178   1.351       .  A
C160        C197   1.457       .  S
C160        C616   1.483       .  S
N161        N178   1.325       .  A
N161        N183   1.321       .  A
N161       Co198   2.082       .  S
C162        N187   1.334       .  A
C162        C200   1.456       .  S
C162        H207   1.081       .  S
H163        C204   1.081       .  S
C164        N188   1.335       .  A
C164        C168   1.458       .  S
C164        H193   1.082       .  S
Co165       N183   2.088       .  S
Co165       N173   2.080       .  S
Co165       N205   2.096       .  S
Co165       N181   2.109       .  S
Co165      Cl209   2.443       .  S
N166        C204   1.345       .  A
N166        N173   1.320       .  A
N166       Co167   2.091       .  S
Co167       N170   2.094       .  S
Co167       N187   2.071       .  S
Co167       N174   2.085       .  S
Co167      Cl209   2.458       .  S
C168        N206   1.353       .  A
C168        C389   1.483       .  S
N169        N176   1.317       .  A
N169        N199   1.319       .  A
N169       Co202   2.072       .  S
N170        N188   1.319       .  A
N170        N206   1.327       .  A
N171        C200   1.359       .  A
N171        N181   1.331       .  A
H172        C197   1.082       .  S
N173        N194   1.320       .  A
N174        N192   1.314       .  A
N174        N179   1.324       .  A
C175        N179   1.355       .  A
C175        C203   1.465       .  S
C175        C602   1.502   1_545  S
N176        C191   1.345       .  A
N176       Co198   2.090       .  S
C177        N205   1.345       .  A
C177        C180   1.464       .  S
C177        H211   1.081       .  S
C180        N201   1.344       .  A
C180        C361   1.481       .  S
N181        N187   1.319       .  A
N182        C208   1.342       .  A
N182        N184   1.318       .  A
N182       Co198   2.080       .  S
N183        C197   1.338       .  A
N184        N212   1.318       .  A
N184       Co202   2.066       .  S
H185        C208   1.081       .  S
H186        C203   1.079       .  S
N188       Co202   2.070       .  S
N189        N201   1.322       .  A
N189        N205   1.322       .  A
N189       Co198   2.078       .  S
C190        N194   1.347       .  A
C190        C204   1.468       .  S
C190        C532   1.492       .  S
C191        C210   1.473       .  S
C191        H195   1.080       .  S
N192        C203   1.335       .  A
N192       Co202   2.067       .  S
C196        N212   1.346       .  A
C196        C208   1.464       .  S
C196        C515   1.482       .  S
Co198      Cl209   2.461       .  S
N199        C210   1.349       .  A
C200        C378   1.499       .  S
Co202      Cl209   2.429       .  S
C210        C350   1.501       .  S
C213        N231   1.359       .  A
C213        C250   1.457       .  S
C213        C473   1.500       .  S
N214        N231   1.328       .  A
N214        N236   1.317       .  A
N214       Co251   2.100       .  S
C215        N240   1.337       .  A
C215        C253   1.459       .  S
C215        H260   1.082       .  S
H216        C257   1.082       .  S
C217        N241   1.336       .  A
C217        C221   1.458       .  S
C217        H246   1.079       .  S
Co218       N236   2.061       .  S
Co218       N226   2.078       .  S
Co218       N258   2.087       .  S
Co218       N234   2.069       .  S
Co218      Cl262   2.446       .  S
N219        C257   1.335       .  A
N219        N226   1.317       .  A
N219       Co220   2.068       .  S
Co220       N223   2.075       .  S
Co220       N240   2.078       .  S
Co220       N227   2.078       .  S
Co220      Cl262   2.432       .  S
C221        N259   1.348       .  A
C221        C403   1.479       .  S
N222        N229   1.320       .  A
N222        N252   1.324       .  A
N222       Co255   2.087       .  S
N223        N241   1.318       .  A
N223        N259   1.322       .  A
N224        C253   1.348       .  A
N224        N234   1.322       .  A
H225        C250   1.080       .  S
N226        N247   1.325       .  A
N227        N245   1.320       .  A
N227        N232   1.321       .  A
C228        N232   1.348       .  A
C228        C256   1.466       .  S
C228        C364   1.489       .  S
N229        C244   1.344       .  A
N229       Co251   2.098       .  S
C230        N258   1.341       .  A
C230        C233   1.462       .  S
C230        H264   1.082       .  S
C233        N254   1.348       .  A
C233        C420   1.483       .  S
N234        N240   1.319       .  A
N235        C261   1.335       .  A
N235        N237   1.320       .  A
N235       Co251   2.081       .  S
N236        C250   1.331       .  A
N237        N265   1.324       .  A
N237       Co255   2.079       .  S
H238        C261   1.081       .  S
H239        C256   1.082       .  S
N241       Co255   2.069       .  S
N242        N254   1.324       .  A
N242        N258   1.320       .  A
N242       Co251   2.081       .  S
C243        N247   1.350       .  A
C243        C257   1.457       .  S
C243        C322   1.481   1_455  S
C244        C263   1.472       .  S
C244        H248   1.080       .  S
N245        C256   1.345       .  A
N245       Co255   2.094       .  S
C249        N265   1.351       .  A
C249        C261   1.457       .  S
C249        C336   1.484       .  S
Co251      Cl262   2.449       .  S
N252        C263   1.350       .  A
C253        C459   1.479       .  S
Co255      Cl262   2.459       .  S
C263        C347   1.504       .  S
C266        N284   1.347       .  A
C266        C303   1.458       .  S
C266        C448   1.476       .  S
N267        N284   1.323       .  A
N267        N289   1.318       .  A
N267       Co304   2.068       .  S
C268        N293   1.344       .  A
C268        C306   1.464       .  S
C268        H313   1.082       .  S
H269        C310   1.081   1_545  S
C270        N294   1.342       .  A
C270        C274   1.456       .  S
C270        H299   1.081       .  S
Co271       N289   2.087       .  S
Co271       N279   2.076       .  S
Co271       N311   2.084       .  S
Co271       N287   2.083       .  S
Co271      Cl315   2.425       .  S
N272        C310   1.342       .  A
N272        N279   1.319       .  A
N272       Co273   2.087       .  S
Co273       N276   2.085       .  S
Co273       N293   2.088       .  S
Co273       N280   2.097       .  S
Co273      Cl315   2.458       .  S
C274        N312   1.346       .  A
C274        C504   1.473       .  S
N275        N282   1.320       .  A
N275        N305   1.329       .  A
N275       Co308   2.103       .  S
N276        N294   1.320       .  A
N276        N312   1.323       .  A
N277        C306   1.350       .  A
N277        N287   1.324       .  A
H278        C303   1.081       .  S
N279        N300   1.320       .  A
N280        N298   1.318       .  A
N280        N285   1.327       .  A
C281        N285   1.359       .  A
C281        C309   1.466       .  S
C281        C434   1.510       .  S
N282        C297   1.337       .  A
N282       Co304   2.074       .  S
C283        N311   1.335       .  A
C283        C286   1.465       .  S
C283        H317   1.082       .  S
C286        N307   1.353       .  A
C286        C627   1.488       .  S
N287        N293   1.319       .  A
N288        C314   1.343       .  A
N288        N290   1.318       .  A
N288       Co304   2.082       .  S
N289        C303   1.342       .  A
N290        N318   1.318       .  A
N290       Co308   2.071       .  S
H291        C314   1.081       .  S
H292        C309   1.078       .  S
N294       Co308   2.074       .  S
N295        N307   1.326       .  A
N295        N311   1.319       .  A
N295       Co304   2.086       .  S
C296        N300   1.347   1_545  A
C296        C310   1.464   1_545  S
C296        C319   1.485       .  S
C297        C316   1.450       .  S
C297        H301   1.081       .  S
N298        C309   1.333       .  A
N298       Co308   2.078       .  S
C302        N318   1.345       .  A
C302        C314   1.466       .  S
C302        C333   1.487       .  S
Co304      Cl315   2.465       .  S
N305        C316   1.355       .  A
C306        C487   1.487       .  S
Co308      Cl315   2.440       .  S
C316        C644   1.483       .  S
C319        C320   1.414       .  A
C319        C324   1.417       .  A
C320        C321   1.412       .  A
C320        C325   1.450       .  S
C321        C322   1.412       .  A
C321        C328   1.452       .  S
C322        C323   1.413       .  A
C323        C324   1.406       .  A
C323        C326   1.453       .  S
C324        C327   1.453       .  S
C325        N332   1.157       .  T
C326        N331   1.158       .  T
C327        N329   1.158       .  T
C328        N330   1.158       .  T
C333        C334   1.418       .  A
C333        C338   1.413       .  A
C334        C335   1.407       .  A
C334        C339   1.454       .  S
C335        C336   1.414       .  A
C335        C342   1.453       .  S
C336        C337   1.413       .  A
C337        C338   1.411       .  A
C337        C340   1.451       .  S
C338        C341   1.450       .  S
C339        N346   1.158       .  T
C340        N345   1.157       .  T
C341        N343   1.157       .  T
C342        N344   1.158       .  T
C347        C348   1.418       .  A
C347        C352   1.418       .  A
C348        C349   1.418       .  A
C348        C353   1.451       .  S
C349        C350   1.419       .  A
C349        C356   1.449       .  S
C350        C351   1.415       .  A
C351        C352   1.411       .  A
C351        C354   1.455       .  S
C352        C355   1.450       .  S
C353        N360   1.158       .  T
C354        N359   1.158       .  T
C355        N357   1.157       .  T
C356        N358   1.158       .  T
C361        C362   1.407       .  A
C361        C366   1.414       .  A
C362        C363   1.410   1_556  A
C362        C367   1.451       .  S
C363        C364   1.419       .  A
C363        C370   1.451       .  S
C364        C365   1.411       .  A
C365        C366   1.414   1_554  A
C365        C368   1.449       .  S
C366        C369   1.451       .  S
C367        N374   1.157       .  T
C368        N373   1.157       .  T
C369        N371   1.157       .  T
C370        N372   1.157       .  T
C375        C376   1.406   1_554  A
C375        C380   1.412   1_565  A
C376        C377   1.413       .  A
C376        C381   1.451       .  S
C377        C378   1.422   1_565  A
C377        C384   1.451       .  S
C378        C379   1.414   1_556  A
C379        C380   1.414       .  A
C379        C382   1.449       .  S
C380        C383   1.449       .  S
C381        N388   1.157       .  T
C382        N387   1.157       .  T
C383        N385   1.156       .  T
C384        N386   1.158       .  T
C389        C390   1.409       .  A
C389        C394   1.415       .  A
C390        C391   1.413       .  A
C390        C395   1.450       .  S
C391        C392   1.416   1_545  A
C391        C398   1.451       .  S
C392        C393   1.408       .  A
C393        C394   1.408   1_565  A
C393        C396   1.450       .  S
C394        C397   1.452       .  S
C395        N402   1.157       .  T
C396        N401   1.157       .  T
C397        N399   1.157   1_545  T
C398        N400   1.157       .  T
C403        C404   1.411       .  A
C403        C408   1.411       .  A
C404        C405   1.409       .  A
C404        C409   1.452       .  S
C405        C406   1.420       .  A
C405        C412   1.451       .  S
C406        C407   1.414       .  A
C407        C408   1.409       .  A
C407        C410   1.448       .  S
C408        C411   1.453       .  S
C409        N416   1.157       .  T
C410        N415   1.156   1_545  T
C411        N413   1.157       .  T
C412        N414   1.158       .  T
C417        C418   1.415       .  A
C417        C422   1.413       .  A
C418        C419   1.411       .  A
C418        C423   1.451       .  S
C419        C420   1.412       .  A
C419        C426   1.452       .  S
C420        C421   1.413       .  A
C421        C422   1.412       .  A
C421        C424   1.452       .  S
C422        C425   1.451       .  S
C423        N430   1.157       .  T
C424        N429   1.158       .  T
C425        N427   1.157       .  T
C426        N428   1.157       .  T
C431        C432   1.427       .  A
C431        C436   1.424       .  A
C432        C433   1.421       .  A
C432        C437   1.449       .  S
C433        C434   1.417       .  A
C433        C440   1.453       .  S
C434        C435   1.415       .  A
C435        C436   1.410       .  A
C435        C438   1.453       .  S
C436        C439   1.450       .  S
C437        N444   1.158       .  T
C438        N443   1.158       .  T
C439        N441   1.157       .  T
C440        N442   1.158       .  T
C445        C446   1.408       .  A
C445        C450   1.412       .  A
C446        C447   1.409       .  A
C446        C451   1.449       .  S
C447        C448   1.411       .  A
C447        C454   1.450       .  S
C448        C449   1.413       .  A
C449        C450   1.409       .  A
C449        C452   1.452       .  S
C450        C453   1.450       .  S
C451        N458   1.157   1_655  T
C452        N457   1.157       .  T
C453        N455   1.157       .  T
C454        N456   1.157       .  T
C459        C460   1.404   1_554  A
C459        C464   1.415   1_455  A
C460        C461   1.407       .  A
C460        C465   1.454       .  S
C461        C462   1.426   1_455  A
C461        C468   1.451       .  S
C462        C463   1.416   1_556  A
C463        C464   1.413       .  A
C463        C466   1.450       .  S
C464        C467   1.451       .  S
C465        N472   1.157       .  T
C466        N471   1.157       .  T
C467        N469   1.157       .  T
C468        N470   1.158       .  T
C473        C474   1.418       .  A
C473        C478   1.425   1_455  A
C474        C475   1.413       .  A
C474        C479   1.451       .  S
C475        C476   1.412   1_455  A
C475        C482   1.452       .  S
C476        C477   1.404       .  A
C477        C478   1.408       .  A
C477        C480   1.454       .  S
C478        C481   1.451       .  S
C479        N486   1.157       .  T
C480        N485   1.157       .  T
C481        N483   1.158       .  T
C482        N484   1.157       .  T
C487        C488   1.406   1_554  A
C487        C492   1.413   1_565  A
C488        C489   1.414   1_565  A
C488        C493   1.451       .  S
C489        C490   1.423       .  A
C489        C496   1.451   1_545  S
C490        C491   1.416   1_556  A
C491        C492   1.415       .  A
C491        C494   1.449       .  S
C492        C495   1.451       .  S
C493        N500   1.157       .  T
C494        N499   1.157       .  T
C495        N497   1.157       .  T
C496        N498   1.157       .  T
C501        C502   1.415       .  A
C501        C506   1.429       .  A
C502        C503   1.414   1_545  A
C502        C507   1.449       .  S
C503        C504   1.409       .  A
C503        C510   1.451       .  S
C504        C505   1.402       .  A
C505        C506   1.407   1_565  A
C505        C508   1.454       .  S
C506        C509   1.452       .  S
C507        N514   1.157       .  T
C508        N513   1.157       .  T
C509        N511   1.158       .  T
C510        N512   1.157       .  T
C515        C516   1.417       .  A
C515        C520   1.414       .  A
C516        C517   1.403       .  A
C516        C521   1.454       .  S
C517        C518   1.413       .  A
C517        C524   1.454       .  S
C518        C519   1.412       .  A
C519        C520   1.411       .  A
C519        C522   1.452       .  S
C520        C523   1.451       .  S
C521        N528   1.158       .  T
C522        N527   1.158       .  T
C523        N525   1.158       .  T
C524        N526   1.158       .  T
C529        C530   1.415       .  A
C529        C534   1.412       .  A
C530        C531   1.408       .  A
C530        C535   1.453       .  S
C531        C532   1.418       .  A
C531        C538   1.454       .  S
C532        C533   1.415       .  A
C533        C534   1.415       .  A
C533        C536   1.450       .  S
C534        C537   1.450       .  S
C535        N542   1.158       .  T
C536        N541   1.157       .  T
C537        N539   1.157       .  T
C538        N540   1.158       .  T
C543        C544   1.426   1_556  A
C543        C548   1.427   1_655  A
C544        C545   1.408       .  A
C544        C549   1.452       .  S
C545        C546   1.407   1_655  A
C545        C552   1.452       .  S
C546        C547   1.406   1_554  A
C547        C548   1.420       .  A
C547        C550   1.451       .  S
C548        C551   1.447       .  S
C549        N556   1.157       .  T
C550        N555   1.157       .  T
C551        N553   1.158       .  T
C552        N554   1.157       .  T
C557        C558   1.415   1_655  A
C557        C562   1.414       .  A
C558        C559   1.413       .  A
C558        C563   1.452       .  S
C559        C560   1.414       .  A
C559        C566   1.447       .  S
C560        C561   1.421   1_455  A
C561        C562   1.417       .  A
C561        C564   1.452       .  S
C562        C565   1.451       .  S
C563        N570   1.157       .  T
C564        N569   1.157       .  T
C565        N567   1.158       .  T
C566        N568   1.156       .  T
C571        C572   1.407       .  A
C571        C576   1.411       .  A
C572        C573   1.406       .  A
C572        C577   1.453       .  S
C573        C574   1.415       .  A
C573        C580   1.449       .  S
C574        C575   1.412       .  A
C575        C576   1.410       .  A
C575        C578   1.451       .  S
C576        C579   1.451       .  S
C577        N584   1.157       .  T
C578        N583   1.158       .  T
C579        N581   1.157       .  T
C580        N582   1.156       .  T
C585        C586   1.409       .  A
C585        C590   1.408       .  A
C586        C587   1.413       .  A
C586        C591   1.454       .  S
C587        C588   1.423       .  A
C587        C594   1.450       .  S
C588        C589   1.427       .  A
C589        C590   1.413       .  A
C589        C592   1.452       .  S
C590        C593   1.453       .  S
C591        N598   1.158       .  T
C592        N597   1.158       .  T
C593        N595   1.157       .  T
C594        N596   1.158       .  T
C599        C600   1.410       .  A
C599        C604   1.411       .  A
C600        C601   1.410       .  A
C600        C605   1.454       .  S
C601        C602   1.422       .  A
C601        C608   1.451   1_565  S
C602        C603   1.422       .  A
C603        C604   1.412       .  A
C603        C606   1.451       .  S
C604        C607   1.452       .  S
C605        N612   1.158   1_455  T
C606        N611   1.158       .  T
C607        N609   1.157       .  T
C608        N610   1.158       .  T
C613        C614   1.412       .  A
C613        C618   1.411       .  A
C614        C615   1.411       .  A
C614        C619   1.451       .  S
C615        C616   1.412       .  A
C615        C622   1.451       .  S
C616        C617   1.415       .  A
C617        C618   1.410       .  A
C617        C620   1.452       .  S
C618        C621   1.452       .  S
C619        N626   1.157       .  T
C620        N625   1.157       .  T
C621        N623   1.157       .  T
C622        N624   1.157       .  T
C627        C628   1.411       .  A
C627        C632   1.410       .  A
C628        C629   1.403   1_554  A
C628        C633   1.455       .  S
C629        C630   1.424       .  A
C629        C636   1.452       .  S
C630        C631   1.419       .  A
C631        C632   1.419   1_556  A
C631        C634   1.450       .  S
C632        C635   1.449       .  S
C633        N640   1.157       .  T
C634        N639   1.157       .  T
C635        N637   1.157       .  T
C636        N638   1.158       .  T
C641        C642   1.410       .  A
C641        C646   1.413       .  A
C642        C643   1.412       .  A
C642        C647   1.451       .  S
C643        C644   1.413       .  A
C643        C650   1.451       .  S
C644        C645   1.411       .  A
C645        C646   1.413       .  A
C645        C648   1.451       .  S
C646        C649   1.451       .  S
C647        N654   1.157       .  T
C648        N653   1.157       .  T
C649        N651   1.157       .  T
C650        N652   1.157       .  T
