geometry optimzed in LAMMPS
_audit_creation_date              2020-11-30 
_audit_creation_method            'lammps2cif' 
_symmetry_space_group_name_H-M    'P1' 
_symmetry_Int_Tables_number       1 
_symmetry_cell_setting            triclinic 
loop_ 
_symmetry_equiv_pos_as_xyz 
  x,y,z 
_cell_length_a                    26.45610511 
_cell_length_b                    26.558868275429397 
_cell_length_c                    36.26256010207434 
_cell_angle_alpha                 90.84936431773157 
_cell_angle_beta                  90.4939857406156 
_cell_angle_gamma                 90.10448985741783 
loop_ 
_atom_site_label 
_atom_site_type_symbol 
_atom_site_fract_x 
_atom_site_fract_y 
_atom_site_fract_z 
_atom_site_charge 
C1          C  0.72640540  0.72192893  0.00128340     0.04400
C2          C  0.71112750  0.70160710  0.46666663    -0.11800
C3          C  0.67601481  0.66186167  0.46612420     0.01900
C4          C  0.65856676  0.64275723  0.49941502    -0.10300
C5          C  0.67264310  0.66164610  0.03271062     0.04400
C6          C  0.70659592  0.70221186  0.03399650    -0.09700
H7          H  0.72594762  0.71480853  0.44079298     0.10000
H8          H  0.63141053  0.61211168  0.49918010     0.07500
H9          H  0.71725185  0.71835465  0.06054811     0.07300
C10         C  0.22178247  0.74452762  0.99591655     0.04400
C11         C  0.23845702  0.72241394  0.02912192    -0.11800
C12         C  0.28006019  0.68949747  0.02944519     0.01900
C13         C  0.30103553  0.67624216  0.49592303    -0.10300
C14         C  0.28498824  0.69650001  0.46248565     0.04400
C15         C  0.24662347  0.73277420  0.46229296    -0.09700
H16         H  0.21963912  0.73079426  0.05484754     0.10000
H17         H  0.33150748  0.64899673  0.49632033     0.07500
H18         H  0.23782829  0.75084677  0.43650908     0.07300
C19         C  0.69855834  0.20812725  0.99483939     0.04400
C20         C  0.68052596  0.23083499  0.46233983    -0.11800
C21         C  0.64109257  0.26614498  0.46344725     0.01900
C22         C  0.62225024  0.28231346  0.49752593    -0.10300
C23         C  0.64070639  0.26191331  0.02959203     0.04400
C24         C  0.67927800  0.22582353  0.02869891    -0.09700
H25         H  0.69566469  0.21901683  0.43593307     0.10000
H26         H  0.59263390  0.31046956  0.49850857     0.07500
H27         H  0.69407558  0.21143506  0.05442221     0.07300
N28         N  0.96650745  0.90231109  0.00010091    -0.35400
N29         N  0.03933772  0.98363264  0.99001288    -0.55900
N30         N  0.95699992  0.05630780  0.99308311    -0.35400
N31         N  0.88408297  0.97493836  0.99909842    -0.55900
C32         C  0.00838807  0.87485551  0.99253090     0.28200
C33         C  0.92612052  0.87089000  0.99750604     0.28200
C34         C  0.99560848  0.08614926  0.98250905     0.28200
C35         C  0.91342022  0.08076576  0.98515345     0.28200
C36         C  0.07213698  0.94495912  0.99424524     0.36800
C37         C  0.06692391  0.02664816  0.99249559     0.36800
C38         C  0.85848243  0.93378846  0.01000676     0.36800
C39         C  0.85335345  0.01472430  0.00516540     0.36800
C40         C  0.99420539  0.82503160  0.98615394    -0.20700
C41         C  0.94253067  0.82282677  0.98848759    -0.20700
C42         C  0.97643357  0.13010045  0.96776288    -0.20700
C43         C  0.92459050  0.12654790  0.96916365    -0.20700
C44         C  0.12093214  0.96370981  0.99810485    -0.21700
C45         C  0.11746951  0.01516477  0.99790166    -0.21700
C46         C  0.81138761  0.94748210  0.02321937    -0.21700
C47         C  0.80818061  0.99881242  0.02024967    -0.21700
C48         C  0.05912026  0.89291930  0.99337691    -0.17100
C49         C  0.87516481  0.88367490  0.00505164    -0.17100
C50         C  0.86415708  0.06459519  0.99465133    -0.17100
C51         C  0.04770013  0.07601930  0.98768781    -0.17100
H52         H  0.01809559  0.79285399  0.98085954     0.15900
H53         H  0.91988135  0.78914906  0.98474963     0.15900
H54         H  0.99763779  0.16156376  0.95718580     0.15900
H55         H  0.89816510  0.15491618  0.96003761     0.15900
H56         H  0.15579054  0.94286480  0.00077802     0.14100
H57         H  0.14897423  0.04097361  0.00078505     0.14100
H58         H  0.78214861  0.92294025  0.03346745     0.14100
H59         H  0.77599296  0.02167235  0.02787171     0.14100
H60         H  0.96604169  0.93898697  0.01021794     0.27400
H61         H  0.96047002  0.02429419  0.00896615     0.27400
C62         C  0.19178545  0.24275444  0.99125296     0.04400
C63         C  0.20880177  0.26591286  0.45871221    -0.11800
C64         C  0.24574683  0.30373025  0.46013475     0.01900
C65         C  0.26492260  0.32052150  0.49415050    -0.10300
C66         C  0.24678389  0.30077465  0.02641636     0.04400
C67         C  0.21188558  0.26068976  0.02522410    -0.09700
H68         H  0.19346374  0.25424686  0.43214224     0.10000
H69         H  0.29362486  0.34973090  0.49517487     0.07500
H70         H  0.20067319  0.24347832  0.05077147     0.07300
N71         N  0.53192921  0.56788097  0.28953605    -0.04900
N72         N  0.54255394  0.59949210  0.31696364    -0.57000
N73         N  0.56306367  0.52811575  0.20486751    -0.04600
N74         N  0.59534880  0.53259337  0.17749866    -0.59100
N75         N  0.53142920  0.56625003  0.20515283    -0.04200
N76         N  0.54144758  0.59732691  0.17823972    -0.57000
N77         N  0.56301289  0.52929281  0.28995199    -0.03800
N78         N  0.59523380  0.53377555  0.31784080    -0.59500
C79         C  0.58208304  0.57777162  0.33447442     0.97300
C80         C  0.58133217  0.57603540  0.16112550     0.97100
N81         N  0.51246489  0.37838383  0.20429826    -0.05100
N82         N  0.51699125  0.34478916  0.17732374    -0.57600
N83         N  0.55049385  0.41119784  0.28954844    -0.03200
N84         N  0.58119523  0.40112299  0.31735109    -0.58800
N85         N  0.51157238  0.38029620  0.28928143    -0.05100
N86         N  0.51488672  0.34875622  0.31700925    -0.57800
N87         N  0.55134964  0.40935057  0.20476428    -0.02800
N88         N  0.58318276  0.39726344  0.17820794    -0.58900
Mn89       Mn  0.55875504  0.46932663  0.24723746     1.18400
C90         C  0.56127432  0.35693803  0.16121963     0.99400
C91         C  0.55853140  0.36212937  0.33430287     1.00000
N92         N  0.41339668  0.57893471  0.20382519    -0.05100
N93         N  0.40884722  0.61115315  0.17656966    -0.61400
N94         N  0.37504833  0.54953887  0.28838404    -0.03900
N95         N  0.34379023  0.56156374  0.31527409    -0.62100
N96         N  0.41404956  0.58029819  0.28868302    -0.04600
N97         N  0.41041536  0.61362715  0.31585031    -0.61700
N98         N  0.37470708  0.54779569  0.20378031    -0.03500
N99         N  0.34300974  0.55825137  0.17668906    -0.62400
Mn100      Mn  0.47292515  0.57481328  0.24677976     1.10700
C101        C  0.36469586  0.59781449  0.15984332     1.00600
C102        C  0.36641371  0.60154319  0.33219666     1.00700
N103        N  0.39351405  0.39279355  0.28801949    -0.04600
N104        N  0.38262163  0.36215979  0.31512518    -0.60000
N105        N  0.36261055  0.42985941  0.20314869    -0.03900
N106        N  0.33000217  0.42560091  0.17551551    -0.56700
N107        N  0.39352903  0.39110610  0.20331538    -0.05300
N108        N  0.38227165  0.35950789  0.17596855    -0.59600
N109        N  0.36246656  0.43138663  0.28807924    -0.04200
N110        N  0.32983369  0.42774584  0.31525406    -0.56800
Mn111      Mn  0.45259482  0.38402411  0.24615797     1.20200
Mn112      Mn  0.36712216  0.48974751  0.24587164     1.10100
Cl113      Cl  0.46288426  0.47943322  0.24644178    -0.84700
C114        C  0.34282053  0.38434028  0.33196726     0.97600
C115        C  0.34260549  0.38154330  0.15878733     0.97400
C116        C  0.29227429  0.28837840  0.08678763     0.24800
C117        C  0.26798716  0.32055004  0.06182469    -0.23300
C118        C  0.26717304  0.37262253  0.06958147     0.19700
C119        C  0.29081096  0.39226219  0.10129935     0.24800
C120        C  0.31622695  0.36029745  0.12584451    -0.23200
C121        C  0.31641339  0.30808402  0.11841181     0.19700
F122        F  0.33973157  0.27597740  0.14182934    -0.13200
F123        F  0.29433612  0.23805426  0.07984947    -0.15500
F124        F  0.29023944  0.44285895  0.10725989    -0.15500
F125        F  0.24362824  0.40466626  0.04621380    -0.13200
C126        C  0.25270989  0.36976713  0.41223140     0.24800
C127        C  0.26770882  0.32309735  0.42605554    -0.23300
C128        C  0.30638666  0.29607550  0.40864338     0.19700
C129        C  0.33062268  0.31581924  0.37800447     0.24800
C130        C  0.31626117  0.36303972  0.36406124    -0.23200
C131        C  0.27655682  0.38958037  0.38133051     0.19700
F132        F  0.26110685  0.43496636  0.36875549    -0.13200
F133        F  0.21523152  0.39625391  0.42889823    -0.15500
F134        F  0.36841495  0.28868286  0.36231535    -0.15500
F135        F  0.32146479  0.25093400  0.42193887    -0.13200
C136        C  0.15771377  0.16307870  0.46201982     0.24800
C137        C  0.15423044  0.20042747  0.98991467    -0.23300
C138        C  0.11469733  0.19795473  0.01573864     0.19700
C139        C  0.08042663  0.15762482  0.01492663     0.24800
C140        C  0.08378149  0.11954611  0.98769729    -0.23200
C141        C  0.12228943  0.12394247  0.46025334     0.19700
F142        F  0.12624920  0.08811719  0.43333549    -0.13200
F143        F  0.19631379  0.16247516  0.43759627    -0.15500
F144        F  0.04392298  0.15556776  0.04096669    -0.15500
F145        F  0.10844552  0.23502695  0.04146602    -0.13200
C146        C  0.82357557  0.14466481  0.01699728     0.24800
C147        C  0.82191043  0.10179254  0.99388176    -0.23300
C148        C  0.78052322  0.09758654  0.46849036     0.19700
C149        C  0.74056248  0.13204108  0.46986596     0.24800
C150        C  0.74094718  0.17130518  0.99430003    -0.23200
C151        C  0.78382521  0.17926892  0.01697047     0.19700
F152        F  0.78767180  0.22106662  0.03882308    -0.13200
F153        F  0.86375742  0.15283588  0.03986535    -0.15500
F154        F  0.69905889  0.12340954  0.44838657    -0.15500
F155        F  0.77766346  0.05766152  0.44471979    -0.13200
C156        C  0.55120517  0.30005407  0.10567476     0.24800
C157        C  0.58255769  0.33004379  0.12871649    -0.23300
C158        C  0.63417775  0.33468193  0.11995600     0.19700
C159        C  0.65357026  0.31095513  0.08836606     0.24800
C160        C  0.62174630  0.28239695  0.06495299    -0.23200
C161        C  0.57064130  0.27668124  0.07404247     0.19700
F162        F  0.53941136  0.24872742  0.05195507    -0.13200
F163        F  0.50127032  0.29459423  0.11296636    -0.15500
F164        F  0.70302480  0.31744027  0.07985026    -0.15500
F165        F  0.66599228  0.36218573  0.14188253    -0.13200
C166        C  0.63196704  0.33893127  0.37477638     0.24800
C167        C  0.57981999  0.33617897  0.36678787    -0.23300
C168        C  0.54827740  0.30871191  0.39030310     0.19700
C169        C  0.56839807  0.28529821  0.42144529     0.24800
C170        C  0.62044867  0.28812596  0.42928950    -0.23200
C171        C  0.65208128  0.31491833  0.40565146     0.19700
F172        F  0.70224656  0.31942429  0.41325341    -0.13200
F173        F  0.66371110  0.36461413  0.35260667    -0.15500
F174        F  0.53699511  0.25999610  0.44413518    -0.15500
F175        F  0.49771936  0.30568086  0.38385136    -0.13200
C176        C  0.14735748  0.78922189  0.46246646     0.24800
C177        C  0.17952756  0.78218641  0.99544024    -0.23300
C178        C  0.17303134  0.81685222  0.02494815     0.19700
C179        C  0.13298434  0.85120418  0.02474209     0.24800
C180        C  0.10100797  0.85506312  0.99376700    -0.23000
C181        C  0.11101508  0.82732073  0.46095073     0.19700
F182        F  0.08407465  0.83360070  0.42929616    -0.13200
F183        F  0.15035037  0.75683030  0.43326730    -0.15500
F184        F  0.12626383  0.88191041  0.05456626    -0.15500
F185        F  0.20627019  0.81900682  0.05363955    -0.13200
C186        C  0.26995245  0.64004759  0.08731696     0.24800
C187        C  0.30045945  0.66901639  0.06428547    -0.23300
C188        C  0.35179070  0.67590712  0.07345662     0.19700
C189        C  0.37258289  0.65341335  0.10473489     0.24800
C190        C  0.34238313  0.62342827  0.12748453    -0.23200
C191        C  0.29067225  0.61742488  0.11861827     0.19700
F192        F  0.25996239  0.58965870  0.14021307    -0.13200
F193        F  0.22048571  0.63210872  0.07876049    -0.15500
F194        F  0.42262901  0.65982822  0.11202193    -0.15500
F195        F  0.38192475  0.70437650  0.05189537    -0.13200
C196        C  0.27338383  0.65351392  0.40147725     0.24800
C197        C  0.30579837  0.67669884  0.42754022    -0.23300
C198        C  0.35809529  0.67713364  0.42127303     0.19700
C199        C  0.37782722  0.65374831  0.38974554     0.24800
C200        C  0.34552062  0.62887369  0.36432350    -0.23200
C201        C  0.29306768  0.62968258  0.37018314     0.19700
F202        F  0.26072800  0.60757901  0.34555275    -0.13200
F203        F  0.22272311  0.65210372  0.40712872    -0.15500
F204        F  0.42865566  0.65386790  0.38484971    -0.15500
F205        F  0.39004020  0.69983777  0.44588875    -0.13200
C206        C  0.80341970  0.76448861  0.02957057     0.24800
C207        C  0.76419384  0.76381473  0.00284702    -0.23300
C208        C  0.76191617  0.80481172  0.47545776     0.19700
C209        C  0.79793646  0.84338299  0.47556265     0.24800
C210        C  0.83641121  0.84273658  0.00513094    -0.23200
C211        C  0.83843088  0.80411217  0.03114539     0.19700
F212        F  0.87494902  0.80434596  0.05769536    -0.13200
F213        F  0.80907837  0.72601845  0.05349484    -0.15500
F214        F  0.79452556  0.87990054  0.44984331    -0.15500
F215        F  0.72328025  0.80664769  0.45064173    -0.13200
C216        C  0.61756496  0.66899224  0.08761797     0.24800
C217        C  0.65199679  0.64082706  0.06676132    -0.23300
C218        C  0.66406135  0.59159111  0.07717510     0.19700
C219        C  0.64167549  0.57052766  0.10815184     0.24800
C220        C  0.60653305  0.59843406  0.12899865    -0.23200
C221        C  0.59488765  0.64806052  0.11843577     0.19700
F222        F  0.56133012  0.67650039  0.13769104    -0.13200
F223        F  0.60467831  0.71627634  0.07737141    -0.15500
F224        F  0.65352613  0.52249066  0.11709351    -0.15500
F225        F  0.69736765  0.56387601  0.05713943    -0.13200
C226        C  0.65973765  0.58950454  0.42268590     0.24800
C227        C  0.65550069  0.64113666  0.43100169    -0.23300
C228        C  0.62782171  0.67207562  0.40716162     0.19700
C229        C  0.60396157  0.65155475  0.37578018     0.24800
C230        C  0.60799934  0.59972814  0.36738848    -0.23200
C231        C  0.63657459  0.56901279  0.39103524     0.19700
F232        F  0.64077075  0.51878262  0.38428682    -0.13200
F233        F  0.68604740  0.55882103  0.44548267    -0.15500
F234        F  0.57692023  0.68253520  0.35367304    -0.15500
F235        F  0.62219956  0.72187759  0.41509194    -0.13200
C236        C  0.72757503  0.72353370  0.50038019     0.04400
C237        C  0.70952595  0.70151154  0.96715971    -0.11800
C238        C  0.67384982  0.66234251  0.96594361     0.01900
C239        C  0.65644712  0.64188112  0.99873450    -0.10300
C240        C  0.67432590  0.66410848  0.53302339     0.04400
C241        C  0.70787038  0.70500128  0.53350315    -0.09700
H242        H  0.72428833  0.71546107  0.94149351     0.10000
H243        H  0.62903965  0.61145306  0.99781197     0.07500
H244        H  0.71845843  0.72222110  0.55971788     0.07300
C245        C  0.22040203  0.74557977  0.49481006     0.04400
C246        C  0.23509743  0.72197746  0.52792094    -0.11800
C247        C  0.27678686  0.68937417  0.52875479     0.01900
C248        C  0.30266655  0.67548408  0.99613055    -0.10300
C249        C  0.28506802  0.69488610  0.96285353     0.04400
C250        C  0.24628037  0.73064197  0.96293897    -0.09700
H251        H  0.21486655  0.72900194  0.55325723     0.10000
H252        H  0.33311464  0.64819719  0.99600373     0.07500
H253        H  0.23576042  0.74753805  0.93703236     0.07300
C254        C  0.70082659  0.21132705  0.49518300     0.04400
C255        C  0.67842105  0.22715632  0.96173394    -0.11800
C256        C  0.63948570  0.26317975  0.96246571     0.01900
C257        C  0.62081518  0.28006687  0.99649351    -0.10300
C258        C  0.64257602  0.26402341  0.53041522     0.04400
C259        C  0.68156690  0.22835837  0.52923574    -0.09700
H260        H  0.69352312  0.21464313  0.93548299     0.10000
H261        H  0.59170291  0.30874207  0.99728514     0.07500
H262        H  0.69651770  0.21369923  0.55482341     0.07300
N263        N  0.96690306  0.90442956  0.49725241    -0.35400
N264        N  0.03966444  0.98564169  0.48841084    -0.55900
N265        N  0.95722540  0.05785715  0.49024878    -0.35400
N266        N  0.88441791  0.97671339  0.49544221    -0.55900
C267        C  0.00887653  0.87734701  0.48936327     0.28200
C268        C  0.92664810  0.87308078  0.49356516     0.28200
C269        C  0.99593128  0.08750906  0.47972461     0.28200
C270        C  0.91383990  0.08219337  0.48178568     0.28200
C271        C  0.07226421  0.94720348  0.49389834     0.36800
C272        C  0.06684470  0.02869096  0.49206028     0.36800
C273        C  0.85893284  0.93554105  0.50639224     0.36800
C274        C  0.85373901  0.01645630  0.50175782     0.36800
C275        C  0.99492263  0.82785336  0.48146140    -0.20700
C276        C  0.94320595  0.82544142  0.48346873    -0.20700
C277        C  0.97703316  0.13113584  0.46428989    -0.20700
C278        C  0.92516017  0.12765806  0.46540001    -0.20700
C279        C  0.12061754  0.96607075  0.49999112    -0.21700
C280        C  0.11697990  0.01752848  0.49958734    -0.21700
C281        C  0.81192081  0.94915474  0.51980429    -0.21700
C282        C  0.80865080  0.00050289  0.51692414    -0.21700
C283        C  0.05946127  0.89531959  0.49165246    -0.17100
C284        C  0.87572120  0.88552434  0.50128197    -0.17100
C285        C  0.86469223  0.06636519  0.49153433    -0.17100
C286        C  0.04774064  0.07772591  0.48612791    -0.17100
H287        H  0.01905355  0.79608160  0.47540667     0.15900
H288        H  0.92058018  0.79193679  0.47878970     0.15900
H289        H  0.99843681  0.16246105  0.45370535     0.15900
H290        H  0.89880207  0.15590823  0.45597368     0.15900
H291        H  0.15522970  0.94526739  0.50417030     0.14100
H292        H  0.14807760  0.04358219  0.50366832     0.14100
H293        H  0.78278778  0.92455794  0.53013451     0.14100
H294        H  0.77652612  0.02335175  0.52470343     0.14100
H295        H  0.96624191  0.94053669  0.50850661     0.27400
H296        H  0.96043456  0.02631943  0.50668845     0.27400
C297        C  0.19212256  0.24305728  0.49125057     0.04400
C298        C  0.20834143  0.26512489  0.95842708    -0.11800
C299        C  0.24439827  0.30393432  0.95940410     0.01900
C300        C  0.26286340  0.32187229  0.99334897    -0.10300
C301        C  0.24844940  0.29879477  0.52678837     0.04400
C302        C  0.21269897  0.25966957  0.52536248    -0.09700
H303        H  0.19322425  0.25266954  0.93198309     0.10000
H304        H  0.29122731  0.35141113  0.99394549     0.07500
H305        H  0.20163170  0.24189750  0.55074792     0.07300
N306        N  0.52974266  0.57005687  0.78875973    -0.04900
N307        N  0.53942356  0.60149472  0.81649089    -0.57000
N308        N  0.56243528  0.53026544  0.70444983    -0.04600
N309        N  0.59552349  0.53526366  0.67763088    -0.59100
N310        N  0.53021419  0.56792551  0.70420293    -0.04200
N311        N  0.54067442  0.59916054  0.67744602    -0.57000
N312        N  0.56123677  0.53181216  0.78939547    -0.03800
N313        N  0.59286949  0.53646455  0.81756651    -0.59500
C314        C  0.57893745  0.58010535  0.83429503     0.97300
C315        C  0.58143161  0.57849121  0.66098342     0.97100
N316        N  0.51313596  0.38024792  0.70431399    -0.05100
N317        N  0.51791466  0.34680617  0.67729044    -0.57600
N318        N  0.55071869  0.41330033  0.78966307    -0.03200
N319        N  0.58153750  0.40285995  0.81740456    -0.58800
N320        N  0.51193916  0.38222438  0.78922549    -0.05100
N321        N  0.51534318  0.35034905  0.81670882    -0.57800
N322        N  0.55174646  0.41153946  0.70480383    -0.02800
N323        N  0.58364686  0.39987057  0.67821601    -0.58900
Mn324      Mn  0.55832740  0.47162281  0.74706533     1.18400
C325        C  0.56205508  0.35942331  0.66119451     0.99400
C326        C  0.55888448  0.36357669  0.83413238     1.00000
N327        N  0.41137099  0.57907719  0.70249303    -0.05100
N328        N  0.40596179  0.61130483  0.67531991    -0.61400
N329        N  0.37357561  0.54995376  0.78728188    -0.03900
N330        N  0.34270593  0.56107944  0.81458372    -0.62100
N331        N  0.41201394  0.58136789  0.78735559    -0.04600
N332        N  0.40830136  0.61435117  0.81474390    -0.61700
N333        N  0.37312827  0.54738133  0.70261915    -0.03500
N334        N  0.34102440  0.55739390  0.67566923    -0.62400
Mn335      Mn  0.47105611  0.57616927  0.74559150     1.10700
C336        C  0.36187275  0.59733869  0.65872834     1.00600
C337        C  0.36485732  0.60131459  0.83149941     1.00700
N338        N  0.39394725  0.39364275  0.78799862    -0.04600
N339        N  0.38354845  0.36340338  0.81549123    -0.60000
N340        N  0.36243299  0.42929043  0.70291458    -0.03900
N341        N  0.32972909  0.42390345  0.67542799    -0.56700
N342        N  0.39431535  0.39136801  0.70315678    -0.05300
N343        N  0.38389712  0.35945610  0.67588186    -0.59600
N344        N  0.36263775  0.43203040  0.78786792    -0.04200
N345        N  0.33043214  0.42878987  0.81533093    -0.56800
Mn346      Mn  0.45316788  0.38530740  0.74608197     1.20200
Mn347      Mn  0.36634655  0.48975162  0.74516020     1.10100
Cl348      Cl  0.46227453  0.48070292  0.74584016    -0.84700
C349        C  0.34386929  0.38579046  0.83237646     0.97600
C350        C  0.34349719  0.38015259  0.65871646     0.97400
C351        C  0.31351766  0.29408620  0.57666688     0.24800
C352        C  0.27008584  0.31680281  0.56214044    -0.23300
C353        C  0.25012474  0.35966224  0.57962905     0.19700
C354        C  0.27341307  0.37985655  0.61132959     0.24800
C355        C  0.31758070  0.35768608  0.62587683    -0.23200
C356        C  0.33709727  0.31420527  0.60829075     0.19700
F357        F  0.37965296  0.29163752  0.62106064    -0.13200
F358        F  0.33393784  0.25324041  0.55950792    -0.15500
F359        F  0.25286958  0.42142267  0.62741570    -0.15500
F360        F  0.20860533  0.38259199  0.56544979    -0.13200
C361        C  0.26126154  0.37536683  0.91697936     0.24800
C362        C  0.26585003  0.32403733  0.92512018    -0.23300
C363        C  0.29536636  0.29290188  0.90233627     0.19700
C364        C  0.32099412  0.31296852  0.87233270     0.24800
C365        C  0.31669627  0.36448015  0.86412809    -0.23200
C366        C  0.28610732  0.39539122  0.88658156     0.19700
F367        F  0.28146758  0.44535361  0.87990344    -0.13200
F368        F  0.23300729  0.40617686  0.93873319    -0.15500
F369        F  0.34998720  0.28184045  0.85137473    -0.15500
F370        F  0.30094444  0.24333278  0.91003187    -0.13200
C371        C  0.15738888  0.16201445  0.96265846     0.24800
C372        C  0.15431667  0.20127263  0.48939628    -0.23300
C373        C  0.11447057  0.19903420  0.51492352     0.19700
C374        C  0.07979106  0.15916044  0.51357946     0.24800
C375        C  0.08363158  0.12110219  0.48641289    -0.23200
C376        C  0.12184844  0.12285035  0.96106096     0.19700
F377        F  0.12507903  0.08751928  0.93374236    -0.13200
F378        F  0.19586663  0.16123178  0.93813840    -0.15500
F379        F  0.04261134  0.15736139  0.53911866    -0.15500
F380        F  0.10847440  0.23581865  0.54090936    -0.13200
C381        C  0.82524716  0.14582732  0.51577215     0.24800
C382        C  0.82300642  0.10401249  0.49165733    -0.23300
C383        C  0.77940662  0.09389863  0.97087727     0.19700
C384        C  0.73902126  0.12798998  0.97140427     0.24800
C385        C  0.74282625  0.17416459  0.49394956    -0.23200
C386        C  0.78575361  0.18069224  0.51679276     0.19700
F387        F  0.78996540  0.22135131  0.53974884    -0.13200
F388        F  0.86573257  0.15267510  0.53857590    -0.15500
F389        F  0.69741999  0.11783063  0.95037714    -0.15500
F390        F  0.77686839  0.05282314  0.94816912    -0.13200
C391        C  0.55293319  0.30117473  0.60643764     0.24800
C392        C  0.58372129  0.33250501  0.62891198    -0.23300
C393        C  0.63509981  0.33836516  0.61981653     0.19700
C394        C  0.65485473  0.31420332  0.58855872     0.24800
C395        C  0.62360670  0.28413891  0.56579171    -0.23200
C396        C  0.57271000  0.27745831  0.57509461     0.19700
F397        F  0.54193199  0.24851034  0.55335564    -0.13200
F398        F  0.50315818  0.29482590  0.61391923    -0.15500
F399        F  0.70397250  0.32190836  0.57958862    -0.15500
F400        F  0.66626599  0.36768610  0.64096040    -0.13200
C401        C  0.63222578  0.33655386  0.87364755     0.24800
C402        C  0.57984581  0.33680796  0.86643501    -0.23300
C403        C  0.54750742  0.31090789  0.89032668     0.19700
C404        C  0.56709655  0.28582935  0.92094623     0.24800
C405        C  0.61942269  0.28563178  0.92812537    -0.23200
C406        C  0.65183452  0.31088814  0.90405506     0.19700
F407        F  0.70236004  0.31246746  0.91085533    -0.13200
F408        F  0.66460396  0.36098597  0.85121199    -0.15500
F409        F  0.53483454  0.26202602  0.94387011    -0.15500
F410        F  0.49665884  0.31131444  0.88487113    -0.13200
C411        C  0.14580005  0.78492332  0.96501817     0.24800
C412        C  0.17863286  0.78379291  0.49406162    -0.23300
C413        C  0.17011038  0.81634133  0.52460196     0.19700
C414        C  0.13054908  0.85116295  0.52408859     0.24800
C415        C  0.10118201  0.85758245  0.49210455    -0.23000
C416        C  0.10885962  0.82249267  0.96348344     0.19700
F417        F  0.07961337  0.82611518  0.93266651    -0.13200
F418        F  0.14726059  0.75052099  0.93698712    -0.15500
F419        F  0.12159077  0.87965680  0.55473553    -0.15500
F420        F  0.20078597  0.81597083  0.55477018    -0.13200
C421        C  0.26838855  0.63320447  0.58316281     0.24800
C422        C  0.29616839  0.66898824  0.56377765    -0.23300
C423        C  0.34462024  0.68273082  0.57641464     0.19700
C424        C  0.36574242  0.66005260  0.60748785     0.24800
C425        C  0.33868232  0.62300010  0.62658524    -0.23200
C426        C  0.28939791  0.61029269  0.61426920     0.19700
F427        F  0.26153333  0.57529759  0.63197164    -0.13200
F428        F  0.22162100  0.61914522  0.57116219    -0.15500
F429        F  0.41319235  0.67363727  0.61820031    -0.15500
F430        F  0.37170967  0.71797117  0.55830846    -0.13200
C431        C  0.27313815  0.64665577  0.90415986     0.24800
C432        C  0.30495711  0.67477509  0.92782256    -0.23300
C433        C  0.35622277  0.68023521  0.91916974     0.19700
C434        C  0.37566200  0.65729208  0.88737452     0.24800
C435        C  0.34412770  0.62773115  0.86414678    -0.23200
C436        C  0.29256181  0.62307166  0.87269968     0.19700
F437        F  0.26077296  0.59574694  0.85062790    -0.13200
F438        F  0.22352063  0.64049529  0.91230078    -0.15500
F439        F  0.42560381  0.66275901  0.88004955    -0.15500
F440        F  0.38743844  0.70753263  0.94170366    -0.13200
C441        C  0.80511012  0.76647376  0.52721915     0.24800
C442        C  0.76522127  0.76547889  0.50106789    -0.23300
C443        C  0.76157113  0.80358429  0.97755970     0.19700
C444        C  0.79783808  0.84192126  0.97826851     0.24800
C445        C  0.83732535  0.84437470  0.50178809    -0.23200
C446        C  0.84033442  0.80587986  0.52784330     0.19700
F447        F  0.87786118  0.80617782  0.55363554    -0.13200
F448        F  0.81107302  0.72854892  0.55156301    -0.15500
F449        F  0.79552845  0.87834287  0.95242490    -0.15500
F450        F  0.72338033  0.80609331  0.95242243    -0.13200
C451        C  0.61716046  0.67109806  0.58689530     0.24800
C452        C  0.65398610  0.64408773  0.56747218    -0.23300
C453        C  0.66831572  0.59612125  0.57935344     0.19700
C454        C  0.64548127  0.57492526  0.61013211     0.24800
C455        C  0.60756029  0.60139895  0.62933612    -0.23200
C456        C  0.59403087  0.65002506  0.61752343     0.19700
F457        F  0.55796568  0.67721718  0.63522690    -0.13200
F458        F  0.60227505  0.71720121  0.57532822    -0.15500
F459        F  0.65967013  0.52805995  0.62043301    -0.15500
F460        F  0.70407008  0.56961417  0.56077011    -0.13200
C461        C  0.66459047  0.59437167  0.91835596     0.24800
C462        C  0.65292836  0.64320200  0.93065440    -0.23300
C463        C  0.61728586  0.67167379  0.91116178     0.19700
C464        C  0.59315057  0.65134146  0.87982005     0.24800
C465        C  0.60466125  0.60216177  0.86730694    -0.23200
C466        C  0.64101910  0.57407625  0.88684817     0.19700
F467        F  0.65310938  0.52645886  0.87609487    -0.13200
F468        F  0.69841462  0.56607239  0.93727874    -0.15500
F469        F  0.55829234  0.67976776  0.86202859    -0.15500
F470        F  0.60450228  0.71851261  0.92333082    -0.13200
loop_ 
_geom_bond_atom_site_label_1 
_geom_bond_atom_site_label_2 
_geom_bond_distance 
_geom_bond_site_symmetry_2 
_ccdc_geom_bond_type 
C1            C6   1.409       .  A
C1          C237   1.412   1_554  A
C1          C207   1.494       .  S
C2            C3   1.405       .  A
C2          C236   1.411       .  A
C2            H7   1.083       .  S
C3            C4   1.398       .  A
C3          C227   1.478       .  S
C4          C240   1.397       .  A
C4            H8   1.085       .  S
C5            C6   1.401       .  A
C5          C239   1.396   1_554  A
C5          C217   1.470       .  S
C6            H9   1.083       .  S
C10          C11   1.415   1_556  A
C10         C250   1.410       .  A
C10         C177   1.502       .  S
C11          C12   1.407       .  A
C11          H16   1.082       .  S
C12         C248   1.398   1_554  A
C12         C187   1.481       .  S
C13          C14   1.397       .  A
C13         C247   1.397       .  A
C13          H17   1.084       .  S
C14          C15   1.401       .  A
C14         C197   1.476       .  S
C15         C245   1.411       .  A
C15          H18   1.081       .  S
C19          C24   1.408   1_556  A
C19         C255   1.410       .  A
C19         C150   1.489       .  S
C20          C21   1.405       .  A
C20         C254   1.408       .  A
C20          H25   1.084       .  S
C21          C22   1.398       .  A
C21         C170   1.478       .  S
C22         C258   1.398       .  A
C22          H26   1.085       .  S
C23          C24   1.402       .  A
C23         C257   1.399   1_554  A
C23         C160   1.478       .  S
C24          H27   1.084       .  S
N28          C33   1.356   1_554  A
N28          C32   1.355   1_654  A
N28          H60   1.036       .  S
N29          C36   1.355       .  A
N29          C37   1.356   1_565  A
N30          C35   1.355       .  A
N30          C34   1.353       .  A
N30          H61   1.038   1_556  S
N31          C38   1.351   1_556  A
N31          C39   1.351   1_566  A
C32          C40   1.390   1_455  A
C32          C48   1.424       .  A
C33          C49   1.419   1_556  A
C33          C41   1.385       .  A
C34          C42   1.386       .  A
C34          C51   1.416   1_655  A
C35          C50   1.418       .  A
C35          C43   1.387       .  A
C36          C48   1.424       .  A
C36          C44   1.388       .  A
C37          C51   1.420       .  A
C37          C45   1.385       .  A
C38          C46   1.386       .  A
C38          C49   1.412       .  A
C39          C47   1.386   1_545  A
C39          C50   1.413   1_554  A
C40          C41   1.372       .  A
C40          H52   1.080   1_655  S
C41          H53   1.082       .  S
C42          C43   1.376       .  A
C42          H54   1.082       .  S
C43          H55   1.082       .  S
C44          C45   1.370   1_565  A
C44          H56   1.081   1_556  S
C45          H57   1.082   1_556  S
C46          C47   1.372       .  A
C46          H58   1.082       .  S
C47          H59   1.082   1_565  S
C48         C180   1.498       .  S
C49         C210   1.493       .  S
C50         C147   1.493       .  S
C51         C140   1.498       .  S
C62          C67   1.413   1_556  A
C62         C298   1.411       .  A
C62         C137   1.499       .  S
C63          C64   1.400       .  A
C63         C297   1.409       .  A
C63          H68   1.083       .  S
C64          C65   1.396       .  A
C64         C127   1.470       .  S
C65         C301   1.397       .  A
C65          H69   1.085       .  S
C66          C67   1.408       .  A
C66         C300   1.400   1_554  A
C66         C117   1.485       .  S
C67          H70   1.083       .  S
N71          N72   1.320       .  A
N71          N77   1.315       .  A
N71        Mn100   2.201       .  S
N72          C79   1.353       .  A
N73          N75   1.315       .  A
N73          N74   1.322       .  A
N73         Mn89   2.210       .  S
N74          C80   1.356       .  A
N75          N76   1.316       .  A
N75        Mn100   2.181       .  S
N76          C80   1.350       .  A
N77          N78   1.321       .  A
N77         Mn89   2.207       .  S
N78          C79   1.354       .  A
C79         C230   1.483       .  S
C80         C220   1.479       .  S
N81          N87   1.316       .  A
N81          N82   1.321       .  A
N81        Mn111   2.207       .  S
N82          C90   1.354       .  A
N83          N84   1.320       .  A
N83          N85   1.315       .  A
N83         Mn89   2.205       .  S
N84          C91   1.354       .  A
N85          N86   1.321       .  A
N85        Mn111   2.203       .  S
N86          C91   1.354       .  A
N87          N88   1.321       .  A
N87         Mn89   2.207       .  S
N88          C90   1.354       .  A
Mn89       Cl113   2.551       .  S
C90         C157   1.485       .  S
C91         C167   1.481       .  S
N92          N93   1.322       .  A
N92          N98   1.315       .  A
N92        Mn100   2.210       .  S
N93         C101   1.356       .  A
N94          N96   1.315       .  A
N94          N95   1.320       .  A
N94        Mn112   2.205       .  S
N95         C102   1.354       .  A
N96          N97   1.319       .  A
N96        Mn100   2.189       .  S
N97         C102   1.351       .  A
N98          N99   1.319       .  A
N98        Mn112   2.196       .  S
N99         C101   1.353       .  A
Mn100      Cl113   2.546       .  S
C101        C190   1.484       .  S
C102        C200   1.476       .  S
N103        N104   1.319       .  A
N103        N109   1.315       .  A
N103       Mn111   2.199       .  S
N104        C114   1.353       .  A
N105        N106   1.320       .  A
N105        N107   1.316       .  A
N105       Mn112   2.206       .  S
N106        C115   1.354       .  A
N107        N108   1.321       .  A
N107       Mn111   2.204       .  S
N108        C115   1.354       .  A
N109        N110   1.320       .  A
N109       Mn112   2.198       .  S
N110        C114   1.354       .  A
Mn111      Cl113   2.548       .  S
Mn112      Cl113   2.549       .  S
C114        C130   1.483       .  S
C115        C120   1.482       .  S
C116        C117   1.406       .  A
C116        C121   1.402       .  A
C116        F123   1.358       .  S
C117        C118   1.407       .  A
C118        C119   1.398       .  A
C118        F125   1.358       .  S
C119        C120   1.407       .  A
C119        F124   1.358       .  S
C120        C121   1.409       .  A
C121        F122   1.358       .  S
C126        C127   1.401       .  A
C126        C131   1.400       .  A
C126        F133   1.358       .  S
C127        C128   1.400       .  A
C128        C129   1.396       .  A
C128        F135   1.358       .  S
C129        C130   1.411       .  A
C129        F134   1.358       .  S
C130        C131   1.412       .  A
C131        F132   1.358       .  S
C136        C141   1.399       .  A
C136        C372   1.412       .  A
C136        F143   1.357       .  S
C137        C138   1.412   1_556  A
C137        C371   1.413       .  A
C138        C139   1.402       .  A
C138        F145   1.358       .  S
C139        C140   1.406   1_554  A
C139        F144   1.358       .  S
C140        C376   1.405       .  A
C141        C375   1.404       .  A
C141        F142   1.358       .  S
C146        C147   1.404   1_554  A
C146        C151   1.398       .  A
C146        F153   1.358       .  S
C147        C383   1.408       .  A
C148        C149   1.400       .  A
C148        C382   1.406       .  A
C148        F155   1.358       .  S
C149        C385   1.410       .  A
C149        F154   1.358       .  S
C150        C151   1.409   1_556  A
C150        C384   1.409       .  A
C151        F152   1.357       .  S
C156        C157   1.409       .  A
C156        C161   1.398       .  A
C156        F163   1.357       .  S
C157        C158   1.410       .  A
C158        C159   1.401       .  A
C158        F165   1.358       .  S
C159        C160   1.404       .  A
C159        F164   1.358       .  S
C160        C161   1.403       .  A
C161        F162   1.358       .  S
C166        C167   1.409       .  A
C166        C171   1.398       .  A
C166        F173   1.357       .  S
C167        C168   1.409       .  A
C168        C169   1.399       .  A
C168        F175   1.358       .  S
C169        C170   1.405       .  A
C169        F174   1.358       .  S
C170        C171   1.403       .  A
C171        F172   1.358       .  S
C176        C181   1.398       .  A
C176        C412   1.417       .  A
C176        F183   1.357       .  S
C177        C178   1.413   1_556  A
C177        C411   1.416       .  A
C178        C179   1.399       .  A
C178        F185   1.357       .  S
C179        C180   1.405   1_554  A
C179        F184   1.358       .  S
C180        C416   1.405       .  A
C181        C415   1.403       .  A
C181        F182   1.358       .  S
C186        C187   1.403       .  A
C186        C191   1.400       .  A
C186        F193   1.358       .  S
C187        C188   1.406       .  A
C188        C189   1.399       .  A
C188        F195   1.358       .  S
C189        C190   1.408       .  A
C189        F194   1.358       .  S
C190        C191   1.411       .  A
C191        F192   1.358       .  S
C196        C197   1.405       .  A
C196        C201   1.396       .  A
C196        F203   1.358       .  S
C197        C198   1.404       .  A
C198        C199   1.398       .  A
C198        F205   1.358       .  S
C199        C200   1.408       .  A
C199        F204   1.358       .  S
C200        C201   1.406       .  A
C201        F202   1.358       .  S
C206        C207   1.414       .  A
C206        C211   1.401       .  A
C206        F213   1.358       .  S
C207        C443   1.410   1_554  A
C208        C209   1.398       .  A
C208        C442   1.410       .  A
C208        F215   1.357       .  S
C209        C445   1.405       .  A
C209        F214   1.358       .  S
C210        C211   1.405       .  A
C210        C444   1.405   1_554  A
C211        F212   1.358       .  S
C216        C217   1.400       .  A
C216        C221   1.395       .  A
C216        F223   1.358       .  S
C217        C218   1.403       .  A
C218        C219   1.398       .  A
C218        F225   1.358       .  S
C219        C220   1.408       .  A
C219        F224   1.358       .  S
C220        C221   1.412       .  A
C221        F222   1.358       .  S
C226        C227   1.405       .  A
C226        C231   1.399       .  A
C226        F233   1.358       .  S
C227        C228   1.404       .  A
C228        C229   1.399       .  A
C228        F235   1.358       .  S
C229        C230   1.410       .  A
C229        F234   1.358       .  S
C230        C231   1.409       .  A
C231        F232   1.358       .  S
C236        C241   1.409       .  A
C236        C442   1.493       .  S
C237        C238   1.403       .  A
C237        H242   1.083       .  S
C238        C239   1.396       .  A
C238        C462   1.473       .  S
C239        H243   1.085       .  S
C240        C241   1.401       .  A
C240        C452   1.471       .  S
C241        H244   1.083       .  S
C245        C246   1.415       .  A
C245        C412   1.502       .  S
C246        C247   1.404       .  A
C246        H251   1.081       .  S
C247        C422   1.476       .  S
C248        C249   1.396       .  A
C248        H252   1.085       .  S
C249        C250   1.399       .  A
C249        C432   1.473       .  S
C250        H253   1.082       .  S
C254        C259   1.409       .  A
C254        C385   1.488       .  S
C255        C256   1.407       .  A
C255        H260   1.083       .  S
C256        C257   1.401       .  A
C256        C405   1.483       .  S
C257        H261   1.084       .  S
C258        C259   1.402       .  A
C258        C395   1.475       .  S
C259        H262   1.083       .  S
N263        C268   1.355       .  A
N263        C267   1.354   1_655  A
N263        H295   1.037       .  S
N264        C271   1.353       .  A
N264        C272   1.354   1_565  A
N265        C270   1.353       .  A
N265        C269   1.352       .  A
N265        H296   1.038       .  S
N266        C273   1.350       .  A
N266        C274   1.351   1_565  A
C267        C275   1.390   1_455  A
C267        C283   1.421       .  A
C268        C284   1.417       .  A
C268        C276   1.385       .  A
C269        C277   1.386       .  A
C269        C286   1.413   1_655  A
C270        C285   1.415       .  A
C270        C278   1.387       .  A
C271        C283   1.419       .  A
C271        C279   1.388       .  A
C272        C286   1.417       .  A
C272        C280   1.385       .  A
C273        C281   1.386       .  A
C273        C284   1.412       .  A
C274        C282   1.386       .  A
C274        C285   1.412       .  A
C275        C276   1.372       .  A
C275        H287   1.080   1_655  S
C276        H288   1.082       .  S
C277        C278   1.376       .  A
C277        H289   1.082       .  S
C278        H290   1.082       .  S
C279        C280   1.371   1_565  A
C279        H291   1.081       .  S
C280        H292   1.082       .  S
C281        C282   1.372   1_565  A
C281        H293   1.082       .  S
C282        H294   1.082       .  S
C283        C415   1.492       .  S
C284        C445   1.491       .  S
C285        C382   1.490       .  S
C286        C375   1.491       .  S
C297        C302   1.412       .  A
C297        C372   1.493       .  S
C298        C299   1.403       .  A
C298        H303   1.083       .  S
C299        C300   1.397       .  A
C299        C362   1.478       .  S
C300        H304   1.084       .  S
C301        C302   1.404       .  A
C301        C352   1.472       .  S
C302        H305   1.083       .  S
N306        N307   1.321       .  A
N306        N312   1.315       .  A
N306       Mn335   2.203       .  S
N307        C314   1.354       .  A
N308        N310   1.315       .  A
N308        N309   1.322       .  A
N308       Mn324   2.213       .  S
N309        C315   1.356       .  A
N310        N311   1.317       .  A
N310       Mn335   2.187       .  S
N311        C315   1.351       .  A
N312        N313   1.319       .  A
N312       Mn324   2.201       .  S
N313        C314   1.353       .  A
C314        C465   1.484       .  S
C315        C455   1.483       .  S
N316        N322   1.316       .  A
N316        N317   1.320       .  A
N316       Mn346   2.206       .  S
N317        C325   1.354       .  A
N318        N319   1.322       .  A
N318        N320   1.315       .  A
N318       Mn324   2.214       .  S
N319        C326   1.356       .  A
N320        N321   1.320       .  A
N320       Mn346   2.199       .  S
N321        C326   1.352       .  A
N322        N323   1.321       .  A
N322       Mn324   2.202       .  S
N323        C325   1.354       .  A
Mn324      Cl348   2.553       .  S
C325        C392   1.483       .  S
C326        C402   1.483       .  S
N327        N328   1.322       .  A
N327        N333   1.315       .  A
N327       Mn335   2.214       .  S
N328        C336   1.356       .  A
N329        N331   1.314       .  A
N329        N330   1.319       .  A
N329       Mn347   2.202       .  S
N330        C337   1.354       .  A
N331        N332   1.319       .  A
N331       Mn335   2.188       .  S
N332        C337   1.352       .  A
N333        N334   1.320       .  A
N333       Mn347   2.197       .  S
N334        C336   1.353       .  A
Mn335      Cl348   2.546       .  S
C336        C425   1.487       .  S
C337        C435   1.477       .  S
N338        N339   1.320       .  A
N338        N344   1.315       .  A
N338       Mn346   2.201       .  S
N339        C349   1.354       .  A
N340        N341   1.320       .  A
N340        N342   1.315       .  A
N340       Mn347   2.204       .  S
N341        C350   1.354       .  A
N342        N343   1.320       .  A
N342       Mn346   2.200       .  S
N343        C350   1.354       .  A
N344        N345   1.320       .  A
N344       Mn347   2.198       .  S
N345        C349   1.353       .  A
Mn346      Cl348   2.545       .  S
Mn347      Cl348   2.550       .  S
C349        C365   1.482       .  S
C350        C355   1.486       .  S
C351        C352   1.401       .  A
C351        C356   1.399       .  A
C351        F358   1.358       .  S
C352        C353   1.401       .  A
C353        C354   1.399       .  A
C353        F360   1.358       .  S
C354        C355   1.411       .  A
C354        F359   1.358       .  S
C355        C356   1.412       .  A
C356        F357   1.358       .  S
C361        C362   1.404       .  A
C361        C366   1.399       .  A
C361        F368   1.358       .  S
C362        C363   1.403       .  A
C363        C364   1.399       .  A
C363        F370   1.358       .  S
C364        C365   1.409       .  A
C364        F369   1.358       .  S
C365        C366   1.409       .  A
C366        F367   1.358       .  S
C371        C376   1.401       .  A
C371        F378   1.357       .  S
C372        C373   1.411       .  A
C373        C374   1.400       .  A
C373        F380   1.358       .  S
C374        C375   1.405       .  A
C374        F379   1.358       .  S
C376        F377   1.358       .  S
C381        C382   1.404       .  A
C381        C386   1.398       .  A
C381        F388   1.358       .  S
C383        C384   1.402       .  A
C383        F390   1.358       .  S
C384        F389   1.358       .  S
C385        C386   1.409       .  A
C386        F387   1.357       .  S
C391        C392   1.409       .  A
C391        C396   1.397       .  A
C391        F398   1.358       .  S
C392        C393   1.410       .  A
C393        C394   1.400       .  A
C393        F400   1.358       .  S
C394        C395   1.403       .  A
C394        F399   1.358       .  S
C395        C396   1.403       .  A
C396        F397   1.358       .  S
C401        C402   1.408       .  A
C401        C406   1.401       .  A
C401        F408   1.357       .  S
C402        C403   1.409       .  A
C403        C404   1.399       .  A
C403        F410   1.358       .  S
C404        C405   1.406       .  A
C404        F409   1.358       .  S
C405        C406   1.405       .  A
C406        F407   1.358       .  S
C411        C416   1.399       .  A
C411        F418   1.358       .  S
C412        C413   1.415       .  A
C413        C414   1.398       .  A
C413        F420   1.357       .  S
C414        C415   1.403       .  A
C414        F419   1.358       .  S
C416        F417   1.358       .  S
C421        C422   1.401       .  A
C421        C426   1.401       .  A
C421        F428   1.358       .  S
C422        C423   1.403       .  A
C423        C424   1.398       .  A
C423        F430   1.358       .  S
C424        C425   1.409       .  A
C424        F429   1.357       .  S
C425        C426   1.413       .  A
C426        F427   1.357       .  S
C431        C432   1.403       .  A
C431        C436   1.396       .  A
C431        F438   1.358       .  S
C432        C433   1.402       .  A
C433        C434   1.398       .  A
C433        F440   1.358       .  S
C434        C435   1.410       .  A
C434        F439   1.358       .  S
C435        C436   1.407       .  A
C436        F437   1.358       .  S
C441        C442   1.413       .  A
C441        C446   1.400       .  A
C441        F448   1.358       .  S
C443        C444   1.398       .  A
C443        F450   1.357       .  S
C444        F449   1.358       .  S
C445        C446   1.404       .  A
C446        F447   1.358       .  S
C451        C452   1.400       .  A
C451        C456   1.396       .  A
C451        F458   1.358       .  S
C452        C453   1.403       .  A
C453        C454   1.399       .  A
C453        F460   1.358       .  S
C454        C455   1.409       .  A
C454        F459   1.357       .  S
C455        C456   1.412       .  A
C456        F457   1.358       .  S
C461        C462   1.401       .  A
C461        C466   1.398       .  A
C461        F468   1.358       .  S
C462        C463   1.403       .  A
C463        C464   1.400       .  A
C463        F470   1.358       .  S
C464        C465   1.411       .  A
C464        F469   1.358       .  S
C465        C466   1.411       .  A
C466        F467   1.357       .  S
