geometry optimzed in LAMMPS
_audit_creation_date              2020-11-30 
_audit_creation_method            'lammps2cif' 
_symmetry_space_group_name_H-M    'P1' 
_symmetry_Int_Tables_number       1 
_symmetry_cell_setting            triclinic 
loop_ 
_symmetry_equiv_pos_as_xyz 
  x,y,z 
_cell_length_a                    40.94104771 
_cell_length_b                    40.732626821526814 
_cell_length_c                    54.48858375571276 
_cell_angle_alpha                 89.70547741544205 
_cell_angle_beta                  89.80456864790038 
_cell_angle_gamma                 90.64342705363828 
loop_ 
_atom_site_label 
_atom_site_type_symbol 
_atom_site_fract_x 
_atom_site_fract_y 
_atom_site_fract_z 
_atom_site_charge 
N1          N  0.81946003  0.68670156  0.18028702    -0.27500
N2          N  0.83691603  0.70302299  0.16371549    -0.35400
C3          C  0.86884790  0.69929297  0.16867611     0.00800
C4          C  0.87140983  0.67960269  0.18932807     0.06800
C5          C  0.83967895  0.67208602  0.19618421    -0.06300
H6          H  0.88864214  0.70932869  0.15765924     0.07500
H7          H  0.83182273  0.65665566  0.21136565     0.08700
Cu8        Cu  0.81596223  0.72787188  0.13459623     0.44200
Cu9        Cu  0.76904440  0.68471856  0.18053956     0.42000
Cu10       Cu  0.72963587  0.71028686  0.12537095     0.43900
N11         N  0.78780962  0.74917627  0.10743424    -0.34900
N12         N  0.75712777  0.74080723  0.10286673    -0.29200
C13         C  0.74463125  0.76216716  0.08664292    -0.05300
C14         C  0.76835299  0.78542053  0.08111278     0.06900
C15         C  0.79543604  0.77639727  0.09451974     0.00700
H16         H  0.71900487  0.76333589  0.08194700     0.08400
H17         H  0.81795574  0.79027389  0.09652001     0.07500
N18         N  0.70476919  0.70190388  0.15785036    -0.36400
N19         N  0.71951021  0.69310153  0.17833642    -0.28500
C20         C  0.70024088  0.70034752  0.19748510    -0.03800
C21         C  0.67224229  0.71491174  0.18873690     0.04800
C22         C  0.67577360  0.71510838  0.16348798     0.02900
H23         H  0.70837728  0.70026684  0.21636003     0.08000
H24         H  0.66107469  0.72876555  0.15061027     0.06900
N25         N  0.60958125  0.94021299  0.31086739    -0.27500
N26         N  0.61994108  0.94452051  0.33362703    -0.35400
C27         C  0.60582501  0.97134195  0.34288679     0.00800
C28         C  0.58556279  0.98452310  0.32526582     0.06800
C29         C  0.58891022  0.96447617  0.30505069    -0.06300
H30         H  0.60695309  0.97821888  0.36202440     0.07500
H31         H  0.57391176  0.96470921  0.28874075     0.08700
Cu32       Cu  0.64320757  0.90960975  0.35494738     0.44200
Cu33       Cu  0.61410284  0.89682811  0.29156163     0.42000
Cu34       Cu  0.62832140  0.82951812  0.33257784     0.43900
N35         N  0.64950908  0.86817036  0.37654440    -0.34900
N36         N  0.64222476  0.83864458  0.36815719    -0.29200
C37         C  0.64226319  0.81705862  0.38678160    -0.05300
C38         C  0.65010363  0.83367912  0.40801053     0.06900
C39         C  0.65473746  0.86610086  0.40091807     0.00700
H40         H  0.63500496  0.79152221  0.38522775     0.08400
H41         H  0.65835783  0.88696403  0.41285414     0.07500
N42         N  0.61873460  0.82375514  0.29582122    -0.36400
N43         N  0.61395250  0.84829793  0.28039427    -0.28500
C44         C  0.61257155  0.83633207  0.25745990    -0.03800
C45         C  0.61663231  0.80255640  0.25858090     0.04800
C46         C  0.62079889  0.79566967  0.28323791     0.02900
H47         H  0.61112799  0.85134147  0.24107133     0.08000
H48         H  0.62841779  0.77272173  0.29129520     0.06900
C49         C  0.90658331  0.51762597  0.29298369     0.80000
N50         N  0.92153710  0.52000701  0.31519623    -0.78300
C51         C  0.91335325  0.49899796  0.33364008     0.82400
N52         N  0.88973662  0.47600783  0.33014596    -0.78300
C53         C  0.87602435  0.47234432  0.30772837     0.82500
N54         N  0.88506323  0.49259905  0.28907243    -0.80000
C55         C  0.92581383  0.62693735  0.22584101     0.80000
N56         N  0.89870200  0.64192563  0.21720028    -0.78300
C57         C  0.90116528  0.66663462  0.20049787     0.82400
N58         N  0.93110895  0.67696681  0.19270936    -0.78300
C59         C  0.95835696  0.66215424  0.20134320     0.82500
N60         N  0.95550693  0.63683783  0.21745708    -0.80000
N61         N  0.82618083  0.40221979  0.29081903    -0.27500
N62         N  0.81436956  0.40882565  0.31286333    -0.35400
C63         C  0.82919923  0.43584078  0.32154938     0.00800
C64         C  0.85099934  0.44708671  0.30407133     0.06800
C65         C  0.84837202  0.42550764  0.28467588    -0.06300
H66         H  0.82585053  0.44533101  0.33988411     0.07500
H67         H  0.86354443  0.42501906  0.26838877     0.08700
Cu68       Cu  0.78411002  0.37852968  0.33327570     0.44200
Cu69       Cu  0.81705392  0.35850511  0.27256083     0.42000
Cu70       Cu  0.78412105  0.29609409  0.31354729     0.43900
N71         N  0.76807816  0.34052885  0.35538687    -0.34900
N72         N  0.76993242  0.30964974  0.34835254    -0.29200
C73         C  0.76389791  0.28996201  0.36767193    -0.05300
C74         C  0.75787376  0.30944732  0.38783869     0.06900
C75         C  0.76056691  0.34143148  0.37942013     0.00700
H76         H  0.76587399  0.26349235  0.36739998     0.08400
H77         H  0.76029368  0.36352034  0.39036469     0.07500
N78         N  0.79235696  0.28887880  0.27663663    -0.36400
N79         N  0.80415886  0.31147436  0.26145132    -0.28500
C80         C  0.80194691  0.30022132  0.23834302    -0.03800
C81         C  0.78731195  0.26930251  0.23901624     0.04800
C82         C  0.78213026  0.26286026  0.26366753     0.02900
H83         H  0.80909022  0.31434209  0.22235574     0.08000
H84         H  0.76917644  0.24196190  0.27147228     0.06900
N85         N  0.56339832  0.17678498  0.18016432    -0.27500
N86         N  0.54462955  0.19749406  0.16806912    -0.35400
C87         C  0.51432960  0.19627040  0.17780034     0.00800
C88         C  0.51431787  0.17382970  0.19696763     0.06800
C89         C  0.54577448  0.16203727  0.19792259    -0.06300
H90         H  0.49387283  0.21043718  0.17129543     0.07500
H91         H  0.55516148  0.14376742  0.21046143     0.08700
Cu92       Cu  0.56173751  0.22617222  0.13905088     0.44200
Cu93       Cu  0.61229725  0.16945180  0.17287465     0.42000
Cu94       Cu  0.64325575  0.20457697  0.11793671     0.43900
N95         N  0.58721665  0.25116708  0.11159582    -0.34900
N96         N  0.61574098  0.24170523  0.10279656    -0.29200
C97         C  0.62756153  0.26501831  0.08756384    -0.05300
C98         C  0.60580513  0.29065724  0.08708066     0.06900
C99         C  0.58041103  0.28103670  0.10241266     0.00700
H100        H  0.65191305  0.26500290  0.07977414     0.08400
H101        H  0.55981073  0.29568712  0.10797464     0.07500
N102        N  0.67324249  0.18615419  0.14499626    -0.36400
N103        N  0.66168884  0.17364723  0.16569782    -0.28500
C104        C  0.68516357  0.17494136  0.18283723    -0.03800
C105        C  0.71283354  0.18940693  0.17261655     0.04800
C106        C  0.70436360  0.19577815  0.14846473     0.02900
H107        H  0.68050337  0.17142619  0.20223333     0.08000
H108        H  0.71774002  0.21150489  0.13580951     0.06900
C109        C  0.46698610  0.12649690  0.24289242     0.80000
N110        N  0.49218607  0.13965209  0.22989855    -0.78300
C111        C  0.48686469  0.16275821  0.21242385     0.82400
N112        N  0.45588214  0.17260106  0.20777253    -0.78300
C113        C  0.43028839  0.15864733  0.22012421     0.82500
N114        N  0.43596876  0.13555863  0.23769036    -0.80000
C115        C  0.51215319  0.03522439  0.31602518     0.80000
N116        N  0.49983530  0.03508954  0.33928644    -0.78300
C117        C  0.51714888  0.02180166  0.35801958     0.82400
N118        N  0.54662709  0.00840566  0.35348671    -0.78300
C119        C  0.55808065  0.00629298  0.33022309     0.82500
N120        N  0.54090720  0.01988291  0.31156671    -0.80000
N121        N  0.83517085  0.03515204  0.67570173    -0.27500
N122        N  0.85461929  0.01698140  0.66210077    -0.35400
C123        C  0.88555534  0.02100268  0.67006821     0.00800
C124        C  0.88514281  0.04255898  0.68969068     0.06800
C125        C  0.85285092  0.05095165  0.69268479    -0.06300
H126        H  0.90667646  0.00930844  0.66212239     0.07500
H127        H  0.84287504  0.06763351  0.70608630     0.08700
Cu128      Cu  0.83660823  0.98769398  0.63390672     0.44200
Cu129      Cu  0.78540758  0.03767011  0.67142896     0.42000
Cu130      Cu  0.74973710  0.00265268  0.61908306     0.43900
N131        N  0.80911040  0.96091418  0.60872519    -0.34900
N132        N  0.77887948  0.96809858  0.60217077    -0.29200
C133        C  0.76736392  0.94436150  0.58742184    -0.05300
C134        C  0.79106210  0.92076879  0.58495738     0.06900
C135        C  0.81725561  0.93200773  0.59862633     0.00700
H136        H  0.74237148  0.94269442  0.58109310     0.08400
H137        H  0.83980881  0.91924288  0.60214755     0.07500
N138        N  0.72195396  0.01926304  0.64822402    -0.36400
N139        N  0.73579474  0.03105594  0.66817545    -0.28500
C140        C  0.71505789  0.02772095  0.68714448    -0.03800
C141        C  0.68646690  0.01300732  0.67895557     0.04800
C142        C  0.69168236  0.00857401  0.65396251     0.02900
H143        H  0.72273354  0.02990316  0.70602999     0.08000
H144        H  0.67694786  0.99351638  0.64190040     0.06900
N145        N  0.57069595  0.79595121  0.80081334    -0.27500
N146        N  0.57363935  0.79112314  0.82473851    -0.35400
C147        C  0.55300660  0.76703127  0.83180532     0.00800
C148        C  0.53676115  0.75567580  0.81136220     0.06800
C149        C  0.54865210  0.77427970  0.79193400    -0.06300
H150        H  0.54954128  0.75891258  0.85058215     0.07500
H151        H  0.54039616  0.77358202  0.77310296     0.08700
Cu152      Cu  0.60260526  0.81888255  0.84792834     0.44200
Cu153      Cu  0.59210696  0.83552133  0.78235495     0.42000
Cu154      Cu  0.62836673  0.89572930  0.82338285     0.43900
N155        N  0.62362899  0.85513400  0.86924503    -0.34900
N156        N  0.63114300  0.88442390  0.86023868    -0.29200
C157        C  0.63837118  0.90478248  0.87878985    -0.05300
C158        C  0.63579629  0.88724643  0.90046898     0.06900
C159        C  0.62659702  0.85578803  0.89381446     0.00700
H160        H  0.64377682  0.93071645  0.87670661     0.08400
H161        H  0.61983408  0.83575719  0.90599719     0.07500
N162        N  0.62427579  0.90223729  0.78595657    -0.36400
N163        N  0.61096572  0.88069628  0.77086494    -0.28500
C164        C  0.61191311  0.89309192  0.74792611    -0.03800
C165        C  0.62707582  0.92384002  0.74852230     0.04800
C166        C  0.63435358  0.92861882  0.77307925     0.02900
H167        H  0.60173371  0.88052081  0.73232403     0.08000
H168        H  0.64674923  0.94957223  0.78105360     0.06900
C169        C  0.48632180  0.58902502  0.71488584     0.80000
N170        N  0.51342571  0.57815036  0.70323784    -0.78300
C171        C  0.51112651  0.55897026  0.68299606     0.82400
N172        N  0.48120580  0.54950142  0.67469777    -0.78300
C173        C  0.45380741  0.56011375  0.68624440     0.82500
N174        N  0.45654327  0.58012049  0.70600989    -0.80000
C175        C  0.48776141  0.68180904  0.79589328     0.80000
N176        N  0.50920507  0.70752273  0.79384072    -0.78300
C177        C  0.51033884  0.73115383  0.81128215     0.82400
N178        N  0.48896677  0.72998654  0.83030610    -0.78300
C179        C  0.46719077  0.70485873  0.83237364     0.82500
N180        N  0.46737976  0.68027595  0.81565826    -0.80000
N181        N  0.79837558  0.28462652  0.81023763    -0.27500
N182        N  0.78933100  0.27885569  0.83318958    -0.35400
C183        C  0.80650809  0.25357400  0.84206085     0.00800
C184        C  0.82708193  0.24279640  0.82375293     0.06800
C185        C  0.82110564  0.26273474  0.80373208    -0.06300
H186        H  0.80577459  0.24526768  0.86094874     0.07500
H187        H  0.83451835  0.26338666  0.78658800     0.08700
Cu188      Cu  0.75982861  0.30935758  0.85346899     0.44200
Cu189      Cu  0.78605169  0.32645440  0.79097243     0.42000
Cu190      Cu  0.74854770  0.38960974  0.82753654     0.43900
N191        N  0.74293301  0.34857866  0.87348435    -0.34900
N192        N  0.74059820  0.37848468  0.86418435    -0.29200
C193        C  0.73657638  0.39988444  0.88258561    -0.05300
C194        C  0.73587668  0.38252820  0.90443327     0.06900
C195        C  0.73981622  0.35005166  0.89802943     0.00700
H196        H  0.73653730  0.42629945  0.88036044     0.08400
H197        H  0.74383276  0.32962800  0.91039577     0.07500
N198        N  0.76140996  0.39563926  0.79101451    -0.36400
N199        N  0.77550035  0.37272627  0.77772475    -0.28500
C200        C  0.78109845  0.38449135  0.75499167    -0.03800
C201        C  0.76947106  0.41627074  0.75376481     0.04800
C202        C  0.75741191  0.42251663  0.77703599     0.02900
H203        H  0.79301464  0.37079442  0.74067653     0.08000
H204        H  0.74588501  0.44479360  0.78321987     0.06900
N205        N  0.59334339  0.54421834  0.66059906    -0.27500
N206        N  0.57638320  0.52813654  0.64381946    -0.35400
C207        C  0.54428434  0.53105081  0.64887674     0.00800
C208        C  0.54112753  0.54971065  0.66993034     0.06800
C209        C  0.57269519  0.55766954  0.67675889    -0.06300
H210        H  0.52480277  0.51991770  0.63831490     0.07500
H211        H  0.58021837  0.57162100  0.69265018     0.08700
Cu212      Cu  0.59872024  0.50146049  0.61610270     0.44200
Cu213      Cu  0.64377404  0.54473602  0.66242826     0.42000
Cu214      Cu  0.68741769  0.51202349  0.61180938     0.43900
N215        N  0.62874211  0.47559558  0.59232800    -0.34900
N216        N  0.66031155  0.48170687  0.58925122    -0.29200
C217        C  0.67328783  0.45805812  0.57529127    -0.05300
C218        C  0.64898829  0.43558363  0.56976007     0.06900
C219        C  0.62107534  0.44740382  0.58083996     0.00700
H220        H  0.69924249  0.45490127  0.57247093     0.08400
H221        H  0.59768031  0.43492072  0.58234292     0.07500
N222        N  0.70905861  0.52118268  0.64529695    -0.36400
N223        N  0.69270307  0.53309288  0.66410462    -0.28500
C224        C  0.70898653  0.52646368  0.68485137    -0.03800
C225        C  0.73682429  0.50913879  0.67900219     0.04800
C226        C  0.73608003  0.50643919  0.65366325     0.02900
H227        H  0.69844945  0.52885548  0.70298088     0.08000
H228        H  0.75106762  0.49042738  0.64267557     0.06900
C229        C  0.89366008  0.18556234  0.80896878     0.80000
N230        N  0.86808914  0.20624602  0.80660273    -0.78300
C231        C  0.85412668  0.21996041  0.82657532     0.82400
N232        N  0.86657516  0.21399499  0.84911721    -0.78300
C233        C  0.89399232  0.19596781  0.85153758     0.82500
N234        N  0.90758220  0.18180145  0.83148229    -0.80000
C235        C  0.93183376  0.09422744  0.73292623     0.80000
N236        N  0.90688264  0.07804340  0.72173563    -0.78300
C237        C  0.91270670  0.05595761  0.70375866     0.82400
N238        N  0.94393065  0.04937330  0.69726879    -0.78300
C239        C  0.96907755  0.06588126  0.70800932     0.82500
N240        N  0.96291678  0.08868603  0.72545635    -0.80000
C241        C  0.24331496  0.38103342  0.55097592     0.80000
N242        N  0.25530466  0.35289949  0.56089243    -0.78300
C243        C  0.28040794  0.35403020  0.57712789     0.82400
N244        N  0.29292717  0.38347250  0.58394177    -0.78300
C245        C  0.27973891  0.41176943  0.57561318     0.82500
N246        N  0.25482602  0.41056772  0.55911803    -0.80000
C247        C  0.14247837  0.37660952  0.47509178     0.80000
N248        N  0.14847642  0.35720736  0.45520656    -0.78300
C249        C  0.12767418  0.35667938  0.43588574     0.82400
N250        N  0.10109143  0.37596655  0.43615003    -0.78300
C251        C  0.09411128  0.39480861  0.45577224     0.82500
N252        N  0.11470791  0.39498896  0.47535125    -0.80000
N253        N  0.55589679  0.72429875  0.47703170    -0.27500
N254        N  0.56199601  0.71551924  0.45412241    -0.35400
C255        C  0.58582804  0.73480247  0.44491270     0.00800
C256        C  0.59550796  0.75654382  0.46283943     0.06800
C257        C  0.57626518  0.74917192  0.48308346    -0.06300
H258        H  0.59464249  0.73380030  0.42618875     0.07500
H259        H  0.57566208  0.76220858  0.50032523     0.08700
Cu260      Cu  0.53629311  0.68080209  0.43423691     0.44200
Cu261      Cu  0.51674196  0.70607374  0.49750175     0.42000
Cu262      Cu  0.46641083  0.64868699  0.46301710     0.43900
N263        N  0.50291867  0.65195659  0.41559207    -0.34900
N264        N  0.47686494  0.63958616  0.42668753    -0.29200
C265        C  0.45532691  0.62970607  0.40970011    -0.05300
C266        C  0.46828226  0.63612090  0.38667448     0.06900
C267        C  0.49858213  0.65026904  0.39116862     0.00700
H268        H  0.43007605  0.62356549  0.41374049     0.08400
H269        H  0.51371223  0.66327994  0.37791804     0.07500
N270        N  0.45371289  0.66750425  0.49673617    -0.36400
N271        N  0.47183927  0.68806855  0.50970818    -0.28500
C272        C  0.45556863  0.69568467  0.53041529    -0.03800
C273        C  0.42577838  0.67916423  0.53022039     0.04800
C274        C  0.42547545  0.66172773  0.50859305     0.02900
H275        H  0.46456746  0.71236527  0.54426333     0.08000
H276        H  0.40624156  0.64559188  0.50207337     0.06900
N277        N  0.29560417  0.49511951  0.59693551    -0.27500
N278        N  0.31928170  0.47910137  0.60806924    -0.35400
C279        C  0.31730756  0.44725302  0.60190641     0.00800
C280        C  0.29131565  0.44306992  0.58597831     0.06800
C281        C  0.27806329  0.47394518  0.58321195    -0.06300
H282        H  0.33351088  0.42846162  0.60865301     0.07500
H283        H  0.25708707  0.48050264  0.57227700     0.08700
Cu284      Cu  0.35303275  0.50140754  0.63131555     0.44200
Cu285      Cu  0.28950937  0.54512966  0.60095272     0.42000
Cu286      Cu  0.32723870  0.57984080  0.65450294     0.43900
N287        N  0.38075709  0.52992314  0.65523357    -0.34900
N288        N  0.36966009  0.55699509  0.66547226    -0.29200
C289        C  0.39357725  0.57087653  0.67883329    -0.05300
C290        C  0.42122273  0.55196508  0.67663619     0.06900
C291        C  0.41229122  0.52616038  0.66155597     0.00700
H292        H  0.39181219  0.59448441  0.68774104     0.08400
H293        H  0.42782852  0.50674266  0.65499062     0.07500
N294        N  0.31003326  0.60788197  0.62576384    -0.36400
N295        N  0.29855714  0.59479033  0.60537394    -0.28500
C296        C  0.30535804  0.61511950  0.58653690    -0.03800
C297        C  0.32226312  0.64232936  0.59523935     0.04800
C298        C  0.32371329  0.63717994  0.62039253     0.02900
H299        H  0.30441929  0.60728341  0.56762324     0.08000
H300        H  0.33965538  0.65018100  0.63291103     0.06900
N301        N  0.81749689  0.74923684  0.59515584    -0.27500
N302        N  0.83329763  0.76684197  0.61172104    -0.35400
C303        C  0.82785135  0.79895849  0.60738994     0.00800
C304        C  0.80767096  0.80142460  0.58711488     0.06800
C305        C  0.80160698  0.76945705  0.57993202    -0.06300
H306        H  0.83748766  0.81889835  0.61833911     0.07500
H307        H  0.78657814  0.76140325  0.56476231     0.08700
Cu308      Cu  0.86068364  0.74531448  0.63942334     0.44200
Cu309      Cu  0.81820014  0.69854684  0.59335166     0.42000
Cu310      Cu  0.85041293  0.65609126  0.64525713     0.43900
N311        N  0.88428049  0.71642435  0.66532573    -0.34900
N312        N  0.87881440  0.68458337  0.66846021    -0.29200
C313        C  0.89891423  0.67323852  0.68595446    -0.05300
C314        C  0.91827620  0.69901432  0.69392599     0.06900
C315        C  0.90840905  0.72599929  0.68047839     0.00700
H316        H  0.90098711  0.64765885  0.69112322     0.08400
H317        H  0.91873589  0.75055292  0.68106328     0.07500
N318        N  0.83660235  0.63256327  0.61328383    -0.36400
N319        N  0.82583663  0.64845967  0.59379065    -0.28500
C320        C  0.82728132  0.62855840  0.57422494    -0.03800
C321        C  0.83994092  0.59880953  0.58168448     0.04800
C322        C  0.84501875  0.60205826  0.60666733     0.02900
H323        H  0.82318621  0.63643745  0.55549934     0.08000
H324        H  0.85710600  0.58484499  0.61864979     0.06900
N325        N  0.02085503  0.44490954  0.46172845    -0.27500
N326        N  0.02420766  0.44307057  0.43760628    -0.35400
C327        C  0.05097335  0.42579708  0.43235855     0.00800
C328        C  0.06564605  0.41649260  0.45406241     0.06800
C329        C  0.04600130  0.42910703  0.47243880    -0.06300
H330        H  0.05898762  0.42004929  0.41394090     0.07500
H331        H  0.04898120  0.42590254  0.49202453     0.08700
Cu332      Cu  0.99309883  0.46326287  0.41176373     0.44200
Cu333      Cu  0.98057308  0.46692196  0.47824787     0.42000
Cu334      Cu  0.92545990  0.50627067  0.43450546     0.43900
N335        N  0.95979504  0.48594058  0.38886043    -0.34900
N336        N  0.93457243  0.50210931  0.39759061    -0.29200
C337        C  0.91537078  0.51140368  0.37894452    -0.05300
C338        C  0.92951191  0.50103496  0.35738083     0.06900
C339        C  0.95745796  0.48465588  0.36426250     0.00700
H340        H  0.89183687  0.52290614  0.38106400     0.08400
H341        H  0.97354002  0.47085671  0.35247770     0.07500
N342        N  0.91807559  0.50507793  0.47180688    -0.36400
N343        N  0.93743734  0.49069212  0.48786167    -0.28500
C344        C  0.92598108  0.49669273  0.51056176    -0.03800
C345        C  0.89805529  0.51560917  0.50862411     0.04800
C346        C  0.89413178  0.52064751  0.48372720     0.02900
H347        H  0.93810255  0.48941714  0.52730454     0.08000
H348        H  0.87698246  0.53673621  0.47483765     0.06900
C349        C  0.75556941  0.85348788  0.54825013     0.80000
N350        N  0.76299493  0.88394136  0.55664484    -0.78300
C351        C  0.78627646  0.88817654  0.57411010     0.82400
N352        N  0.80169713  0.86158928  0.58368889    -0.78300
C353        C  0.79374187  0.83093816  0.57575531     0.82500
N354        N  0.77088907  0.82718004  0.55802508    -0.80000
C355        C  0.65755002  0.82120508  0.47538453     0.80000
N356        N  0.66230704  0.83365599  0.45232510    -0.78300
C357        C  0.64609903  0.82051966  0.43292948     0.82400
N358        N  0.62520281  0.79497478  0.43656190    -0.78300
C359        C  0.61864077  0.78388229  0.45949053     0.82500
N360        N  0.63438607  0.79741050  0.47884725    -0.80000
C361        C  0.73172478  0.39214366  0.97188538     0.80000
N362        N  0.75275716  0.41805103  0.97485586    -0.78300
C363        C  0.76621296  0.43357643  0.95506272     0.82400
N364        N  0.75857174  0.42324351  0.93218929    -0.78300
C365        C  0.73947840  0.39628533  0.92902242     0.82500
N366        N  0.72648386  0.38062079  0.94884680    -0.80000
C367        C  0.64563228  0.35896315  0.05315588     0.80000
N368        N  0.63080159  0.38510318  0.06343681    -0.78300
C369        C  0.60728521  0.38097510  0.08079106     0.82400
N370        N  0.59794849  0.35016389  0.08761879    -0.78300
C371        C  0.61247230  0.32368136  0.07727458     0.82500
N372        N  0.63620842  0.32817210  0.05998778    -0.80000
N373        N  0.83532118  0.48583108  0.97113536    -0.27500
N374        N  0.83077545  0.49446538  0.94792550    -0.35400
C375        C  0.80420351  0.47872927  0.93937765     0.00800
C376        C  0.79130669  0.45931463  0.95795885     0.06800
C377        C  0.81146299  0.46456220  0.97790461    -0.06300
H378        H  0.79619196  0.47962547  0.92048103     0.07500
H379        H  0.81051392  0.45177642  0.99535378     0.08700
Cu380      Cu  0.86278930  0.52225141  0.92640216     0.44200
Cu381      Cu  0.87672897  0.49755364  0.99153489     0.42000
Cu382      Cu  0.93983710  0.53245206  0.95408252     0.43900
N383        N  0.90228212  0.54284963  0.90771406    -0.34900
N384        N  0.93080917  0.54657326  0.91858694    -0.29200
C385        C  0.95352823  0.55444143  0.90180070    -0.05300
C386        C  0.93883931  0.55580064  0.87907900     0.06900
C387        C  0.90622470  0.54823790  0.88344197     0.00700
H388        H  0.97951742  0.55493084  0.90540708     0.08400
H389        H  0.88788608  0.54275278  0.86976189     0.07500
N390        N  0.94695088  0.51844451  0.98985890    -0.36400
N391        N  0.92368448  0.50689180  0.00445209    -0.28500
C392        C  0.93582344  0.50407271  0.02733205    -0.03800
C393        C  0.96848206  0.51365114  0.02675564     0.04800
C394        C  0.97440310  0.52293898  0.00274993     0.02900
H395        H  0.92166520  0.49695579  0.04333110     0.08000
H396        H  0.99624008  0.53474443  0.99555501     0.06900
N397        N  0.09422376  0.72080810  0.09363886    -0.27500
N398        N  0.07671151  0.73748348  0.10962018    -0.35400
C399        C  0.08160500  0.76968922  0.10594860     0.00800
C400        C  0.10330641  0.77369887  0.08673187     0.06800
C401        C  0.11088021  0.74221889  0.07923537    -0.06300
H402        H  0.07117103  0.78874874  0.11719146     0.07500
H403        H  0.12803424  0.73538498  0.06506334     0.08700
Cu404      Cu  0.04938536  0.71670572  0.13746440     0.44200
Cu405      Cu  0.09484565  0.66981756  0.09375932     0.42000
Cu406      Cu  0.07119084  0.63495640  0.15274709     0.43900
N407        N  0.02738398  0.69044252  0.16537254    -0.34900
N408        N  0.03761180  0.66128880  0.17250262    -0.29200
C409        C  0.01576473  0.64818740  0.18823228    -0.05300
C410        C  0.99033263  0.66991974  0.19069859     0.06900
C411        C  0.99852903  0.69657325  0.17611006     0.00700
H412        H  0.01615977  0.62300825  0.19466573     0.08400
H413        H  0.98337179  0.71742730  0.17186418     0.07500
N414        N  0.07532880  0.60787624  0.12110463    -0.36400
N415        N  0.08291337  0.62063445  0.09942948    -0.28500
C416        C  0.07280812  0.59984592  0.08188757    -0.03800
C417        C  0.05767657  0.57308330  0.09298144     0.04800
C418        C  0.06002178  0.57885991  0.11785814     0.02900
H419        H  0.07207093  0.60600248  0.06255700     0.08000
H420        H  0.04740130  0.56545443  0.13229073     0.06900
N421        N  0.58247098  0.46206608  0.09994145    -0.27500
N422        N  0.56486277  0.44425926  0.11558255    -0.35400
C423        C  0.57084792  0.41220640  0.11146533     0.00800
C424        C  0.59316551  0.41015435  0.09231462     0.06800
C425        C  0.59995608  0.44218773  0.08560080    -0.06300
H426        H  0.55971292  0.39200887  0.12152563     0.07500
H427        H  0.61596910  0.45052957  0.07095413     0.08700
Cu428      Cu  0.53361815  0.46554202  0.14136868     0.44200
Cu429      Cu  0.58019265  0.51226617  0.09614198     0.42000
Cu430      Cu  0.53870955  0.55550918  0.14187181     0.43900
N431        N  0.50853895  0.49559525  0.16601080    -0.34900
N432        N  0.51331004  0.52772892  0.16748523    -0.29200
C433        C  0.49330123  0.54006248  0.18461317    -0.05300
C434        C  0.47448967  0.51474383  0.19411942     0.06900
C435        C  0.48459368  0.48687090  0.18187688     0.00700
H436        H  0.49044459  0.56599521  0.18815397     0.08400
H437        H  0.47447280  0.46232133  0.18371545     0.07500
N438        N  0.54778562  0.57543278  0.10760281    -0.36400
N439        N  0.56338884  0.55905784  0.09044617    -0.28500
C440        C  0.55708632  0.57260230  0.06849017    -0.03800
C441        C  0.53625450  0.59872985  0.07189926     0.04800
C442        C  0.53101361  0.59985098  0.09699885     0.02900
H443        H  0.56323596  0.56139134  0.05114066     0.08000
H444        H  0.51236943  0.61372713  0.10631554     0.06900
N445        N  0.35598277  0.75890322  0.95831483    -0.27500
N446        N  0.36080004  0.77097562  0.93600429    -0.35400
C447        C  0.34295658  0.79822249  0.93327856     0.00800
C448        C  0.32579733  0.80335482  0.95478381     0.06800
C449        C  0.33446585  0.77789800  0.97026406    -0.06300
H450        H  0.34209399  0.81288673  0.91668146     0.07500
H451        H  0.32623640  0.77380771  0.98893282     0.08700
Cu452      Cu  0.38996464  0.74908403  0.90967043     0.44200
Cu453      Cu  0.38072059  0.71835201  0.97152724     0.42000
Cu454      Cu  0.42284475  0.67043711  0.92509629     0.43900
N455        N  0.41617190  0.72063360  0.88520555    -0.34900
N456        N  0.42616228  0.69062749  0.89031038    -0.29200
C457        C  0.44366660  0.67933005  0.87126150    -0.05300
C458        C  0.44507507  0.70360212  0.85350207     0.06900
C459        C  0.42761251  0.72950545  0.86296807     0.00700
H460        H  0.45704038  0.65656459  0.87137270     0.08400
H461        H  0.42484160  0.75360861  0.85484457     0.07500
N462        N  0.42774101  0.66316278  0.96247749    -0.36400
N463        N  0.41297159  0.68084546  0.97940907    -0.28500
C464        C  0.42499295  0.67279828  0.00155370    -0.03800
C465        C  0.44818449  0.64871049  0.99840496     0.04800
C466        C  0.44947458  0.64345124  0.97337550     0.02900
H467        H  0.41834805  0.68459032  0.01857295     0.08000
H468        H  0.46663272  0.62834051  0.96355785     0.06900
C469        C  0.25579854  0.85030268  0.97930648     0.80000
N470        N  0.27888678  0.82670104  0.97666778    -0.78300
C471        C  0.30302928  0.83019703  0.95961548     0.82400
N472        N  0.30498444  0.85805440  0.94590510    -0.78300
C473        C  0.28219784  0.88165687  0.94845022     0.82500
N474        N  0.25713699  0.87711084  0.96441469    -0.80000
C475        C  0.15828030  0.83463310  0.05671748     0.80000
N476        N  0.15176234  0.86159750  0.07051590    -0.78300
C477        C  0.12740051  0.86081353  0.08742540     0.82400
N478        N  0.11035894  0.83262624  0.09130270    -0.78300
C479        C  0.11795317  0.80502536  0.07884142     0.82500
N480        N  0.14147803  0.80621852  0.06122968    -0.80000
N481        N  0.04720071  0.96790085  0.20370662    -0.27500
N482        N  0.03389890  0.95833926  0.18284473    -0.35400
C483        C  0.00195427  0.96626025  0.18309761     0.00800
C484        C  0.99536070  0.98154460  0.20523886     0.06800
C485        C  0.02456906  0.98209702  0.21770661    -0.06300
H486        H  0.98531202  0.96261394  0.16794739     0.07500
H487        H  0.02935574  0.99299676  0.23542277     0.08700
Cu488      Cu  0.06202624  0.93739592  0.15530227     0.44200
Cu489      Cu  0.09548138  0.96291892  0.21269148     0.42000
Cu490      Cu  0.15123725  0.94000222  0.16654384     0.43900
N491        N  0.09757812  0.91856157  0.13203011    -0.34900
N492        N  0.12952770  0.92177755  0.13512697    -0.29200
C493        C  0.14503322  0.90418627  0.11791461    -0.05300
C494        C  0.12181187  0.88876823  0.10359573     0.06900
C495        C  0.09206473  0.89826115  0.11309232     0.00700
H496        H  0.17104695  0.89974614  0.11775654     0.08400
H497        H  0.06819178  0.88919442  0.10776814     0.07500
N498        N  0.16374610  0.94180966  0.20325266    -0.36400
N499        N  0.14270943  0.95038733  0.22038488    -0.28500
C500        C  0.15408664  0.94142855  0.24245343    -0.03800
C501        C  0.18375521  0.92625781  0.23912582     0.04800
C502        C  0.18910419  0.92688893  0.21400646     0.02900
H503        H  0.13967731  0.94159994  0.25913129     0.08000
H504        H  0.20781109  0.91375377  0.20414647     0.06900
N505        N  0.34429742  0.74073093  0.34803787    -0.27500
N506        N  0.35738380  0.74616478  0.36981208    -0.35400
C507        C  0.38167628  0.72478813  0.37335392     0.00800
C508        C  0.38397353  0.70503144  0.35282662     0.06800
C509        C  0.35993975  0.71582772  0.33710108    -0.06300
H510        H  0.39626526  0.72339526  0.38984399     0.07500
H511        H  0.35389386  0.70603628  0.31924144     0.08700
Cu512      Cu  0.34058703  0.78121600  0.39432997     0.44200
Cu513      Cu  0.30513657  0.76680063  0.33485095     0.42000
Cu514      Cu  0.25934398  0.80925307  0.38153616     0.43900
N515        N  0.31558622  0.81406726  0.41643237    -0.34900
N516        N  0.28461793  0.82156213  0.41286219    -0.29200
C517        C  0.27544904  0.84385799  0.42952273    -0.05300
C518        C  0.30209219  0.85126916  0.44394457     0.06900
C519        C  0.32720457  0.83208320  0.43518985     0.00700
H520        H  0.25202613  0.85590466  0.42970043     0.08400
H521        H  0.35223455  0.83192675  0.44149465     0.07500
N522        N  0.24922478  0.81216561  0.34454518    -0.36400
N523        N  0.26673730  0.79762499  0.32743838    -0.28500
C524        C  0.25850090  0.80972564  0.30537776    -0.03800
C525        C  0.23443639  0.83288070  0.30871770     0.04800
C526        C  0.22932399  0.83388398  0.33381265     0.02900
H527        H  0.27138704  0.80426415  0.28858128     0.08000
H528        H  0.21407412  0.85089880  0.34368405     0.06900
C529        C  0.41839076  0.54804053  0.24104533     0.80000
N530        N  0.39021378  0.53197358  0.23514226    -0.78300
C531        C  0.38965476  0.50940806  0.21686536     0.82400
N532        N  0.41772986  0.50210249  0.20484141    -0.78300
C533        C  0.44583313  0.51847785  0.21008708     0.82500
N534        N  0.44593747  0.54166860  0.22791460    -0.80000
C535        C  0.44795753  0.64455467  0.36565420     0.80000
N536        N  0.42715204  0.66991583  0.36785974    -0.78300
C537        C  0.40660784  0.67769256  0.34941366     0.82400
N538        N  0.40671081  0.65959932  0.32850920    -0.78300
C539        C  0.42777682  0.63410502  0.32595533     0.82500
N540        N  0.44826102  0.62658964  0.34476865    -0.80000
N541        N  0.07452132  0.23981291  0.31580193    -0.27500
N542        N  0.08111668  0.23375002  0.33915978    -0.35400
C543        C  0.06424886  0.20683063  0.34622017     0.00800
C544        C  0.04633180  0.19550306  0.32644652     0.06800
C545        C  0.05379678  0.21668462  0.30738904    -0.06300
H546        H  0.06249359  0.19819067  0.36499680     0.07500
H547        H  0.04164691  0.21789807  0.28980601     0.08700
Cu548      Cu  0.10591541  0.26550802  0.36277534     0.44200
Cu549      Cu  0.08345585  0.28395285  0.29825147     0.42000
Cu550      Cu  0.11488651  0.34543665  0.33786371     0.43900
N551        N  0.12483513  0.30460789  0.38302815    -0.34900
N552        N  0.12896492  0.33390844  0.37298057    -0.29200
C553        C  0.13565996  0.35584590  0.39052504    -0.05300
C554        C  0.13573843  0.33995057  0.41295667     0.06900
C555        C  0.12861771  0.30736247  0.40753005     0.00700
H556        H  0.13572245  0.38215343  0.38759193     0.08400
H557        H  0.12230209  0.28820611  0.42059291     0.07500
N558        N  0.09623544  0.35565687  0.30375190    -0.36400
N559        N  0.08528068  0.33295669  0.28861430    -0.28500
C560        C  0.07974181  0.34684329  0.26661705    -0.03800
C561        C  0.08755439  0.38001870  0.26806703     0.04800
C562        C  0.09789889  0.38455287  0.29194458     0.02900
H563        H  0.07384175  0.33325693  0.25018422     0.08000
H564        H  0.10987863  0.40616735  0.29926097     0.06900
N565        N  0.30588482  0.48691783  0.20118685    -0.27500
N566        N  0.32242873  0.46731979  0.18654210    -0.35400
C567        C  0.35454765  0.47173594  0.19042443     0.00800
C568        C  0.35851896  0.49512818  0.20847358     0.06800
C569        C  0.32715658  0.50424642  0.21495486    -0.06300
H570        H  0.37361780  0.45944718  0.18034141     0.07500
H571        H  0.32033436  0.52283904  0.22805564     0.08700
Cu572      Cu  0.30100432  0.43696047  0.16071286     0.44200
Cu573      Cu  0.25524785  0.48985390  0.20026937     0.42000
Cu574      Cu  0.22019015  0.45973884  0.14345593     0.43900
N575        N  0.27403119  0.41210620  0.13453278    -0.34900
N576        N  0.24530083  0.42221381  0.12673496    -0.29200
C577        C  0.23261606  0.39965366  0.11146476    -0.05300
C578        C  0.25422050  0.37393447  0.10988721     0.06900
C579        C  0.28023538  0.38260872  0.12470328     0.00700
H580        H  0.20808234  0.40032044  0.10416157     0.08400
H581        H  0.30118571  0.36777247  0.12914547     0.07500
N582        N  0.19272720  0.47444196  0.17317406    -0.36400
N583        N  0.20546432  0.48327416  0.19444292    -0.28500
C584        C  0.18303304  0.47819994  0.21216150    -0.03800
C585        C  0.15506375  0.46513184  0.20166617     0.04800
C586        C  0.16190054  0.46388921  0.17684826     0.02900
H587        H  0.18854975  0.47858976  0.23157835     0.08000
H588        H  0.14781622  0.45068018  0.16325093     0.06900
C589        C  0.97764575  0.14049659  0.30885273     0.80000
N590        N  0.00514930  0.15951099  0.30738373    -0.78300
C591        C  0.01785912  0.17349165  0.32780381     0.82400
N592        N  0.00206319  0.16987588  0.34943542    -0.78300
C593        C  0.97284271  0.15409283  0.35064262     0.82500
N594        N  0.96050882  0.13931955  0.33033825    -0.80000
C595        C  0.94380193  0.04167609  0.23666610     0.80000
N596        N  0.91441003  0.03670085  0.22568741    -0.78300
C597        C  0.91047783  0.01192880  0.20919972     0.82400
N598        N  0.93646662  0.99335678  0.20256742    -0.78300
C599        C  0.96588587  0.99861996  0.21322158     0.82500
N600        N  0.96895968  0.02195591  0.23060854    -0.80000
N601        N  0.57206518  0.00908275  0.97419233    -0.27500
N602        N  0.57814399  0.01908218  0.95146700    -0.35400
C603        C  0.59843922  0.99780084  0.94066929     0.00800
C604        C  0.60574645  0.97349730  0.95745838     0.06800
C605        C  0.58887374  0.98150785  0.97856604    -0.06300
H606        H  0.60579084  0.99894240  0.92158893     0.07500
H607        H  0.58669768  0.96685914  0.99512687     0.08700
Cu608      Cu  0.55501982  0.05772060  0.93424472     0.44200
Cu609      Cu  0.53568671  0.02811156  0.99638769     0.42000
Cu610      Cu  0.48723714  0.08976711  0.96666235     0.43900
N611        N  0.52200884  0.08923981  0.91825937    -0.34900
N612        N  0.49676417  0.10083165  0.93045367    -0.29200
C613        C  0.47479745  0.11219713  0.91442466    -0.05300
C614        C  0.48676202  0.10776163  0.89096805     0.06900
C615        C  0.51685683  0.09327675  0.89407418     0.00700
H616        H  0.45001635  0.11855826  0.91929794     0.08400
H617        H  0.53122153  0.08167545  0.87991769     0.07500
N618        N  0.47438835  0.06758144  0.99935739    -0.36400
N619        N  0.49204113  0.04517679  0.01065313    -0.28500
C620        C  0.47574208  0.03467527  0.03077441    -0.03800
C621        C  0.44643645  0.05127030  0.03192967     0.04800
C622        C  0.44637923  0.07176437  0.01171774     0.02900
H623        H  0.48421967  0.01583695  0.04319471     0.08000
H624        H  0.42733446  0.08852655  0.00636234     0.06900
N625        N  0.28077763  0.20358510  0.11897941    -0.27500
N626        N  0.29604990  0.22222525  0.13522143    -0.35400
C627        C  0.28777981  0.25369349  0.13137255     0.00800
C628        C  0.26645673  0.25483711  0.11172933     0.06800
C629        C  0.26243996  0.22264096  0.10439086    -0.06300
H630        H  0.29718001  0.27428386  0.14175745     0.07500
H631        H  0.24811495  0.21379601  0.08908986     0.08700
Cu632      Cu  0.32868935  0.20434084  0.16117089     0.44200
Cu633      Cu  0.28823875  0.15371716  0.11547953     0.42000
Cu634      Cu  0.32666166  0.11618030  0.16666196     0.43900
N635        N  0.35730807  0.17818118  0.18582271    -0.34900
N636        N  0.35345249  0.14627225  0.18955899    -0.29200
C637        C  0.37701092  0.13564511  0.20459377    -0.05300
C638        C  0.39721563  0.16184357  0.21021891     0.06900
C639        C  0.38411321  0.18850224  0.19796989     0.00700
H640        H  0.38179958  0.11001106  0.20826572     0.08400
H641        H  0.39470404  0.21288912  0.19641412     0.07500
N642        N  0.32239354  0.09345353  0.13302358    -0.36400
N643        N  0.30897902  0.10776747  0.11381750    -0.28500
C644        C  0.31975379  0.09321262  0.09330427    -0.03800
C645        C  0.34134068  0.06869117  0.09979121     0.04800
C646        C  0.34201096  0.06940749  0.12521670     0.02900
H647        H  0.31642143  0.10323768  0.07506769     0.08000
H648        H  0.35935040  0.05702306  0.13688728     0.06900
C649        C  0.72987293  0.85202087  0.04576590     0.80000
N650        N  0.73833523  0.82143472  0.05325829    -0.78300
C651        C  0.76257608  0.81765208  0.07004937     0.82400
N652        N  0.77782176  0.84453223  0.07958122    -0.78300
C653        C  0.76911680  0.87503945  0.07221349     0.82500
N654        N  0.74579023  0.87848046  0.05493502    -0.80000
C655        C  0.64669953  0.89408475  0.96760730     0.80000
N656        N  0.64685465  0.88199162  0.94441976    -0.78300
C657        C  0.63661722  0.90067537  0.92529534     0.82400
N658        N  0.62534435  0.93135902  0.92938853    -0.78300
C659        C  0.62271349  0.94269125  0.95264130     0.82500
N660        N  0.63337979  0.92404880  0.97158382    -0.80000
N661        N  0.78354372  0.95580309  0.09743301    -0.27500
N662        N  0.79947159  0.93790257  0.11365561    -0.35400
C663        C  0.79822780  0.90620685  0.10675118     0.00800
C664        C  0.78066683  0.90436048  0.08514287     0.06800
C665        C  0.77184066  0.93620311  0.07978210    -0.06300
H666        H  0.80828370  0.88600769  0.11712941     0.07500
H667        H  0.75702201  0.94444483  0.06459531     0.08700
Cu668      Cu  0.82087398  0.95808307  0.14452347     0.44200
Cu669      Cu  0.77723854  0.00583528  0.09988708     0.42000
Cu670      Cu  0.80225364  0.04427455  0.15520027     0.43900
N671        N  0.84226176  0.98669388  0.17147353    -0.34900
N672        N  0.83420497  0.01737357  0.17625726    -0.29200
C673        C  0.85591662  0.03023119  0.19207912    -0.05300
C674        C  0.87898592  0.00670996  0.19710793     0.06900
C675        C  0.86951690  0.97938618  0.18390036     0.00700
H676        H  0.85695446  0.05584526  0.19724243     0.08400
H677        H  0.88286389  0.95676773  0.18191370     0.07500
N678        N  0.79053653  0.07041054  0.12399213    -0.36400
N679        N  0.78152672  0.05605421  0.10339025    -0.28500
C680        C  0.78678505  0.07689355  0.08460011    -0.03800
C681        C  0.80035707  0.10555073  0.09368951     0.04800
C682        C  0.80198805  0.10069911  0.11878032     0.02900
H683        H  0.78657665  0.06956888  0.06553936     0.08000
H684        H  0.81596732  0.11548137  0.13151184     0.06900
N685        N  0.01416587  0.22813567  0.97664887    -0.27500
N686        N  0.01683098  0.22947812  0.95244483    -0.35400
C687        C  0.04217148  0.24907742  0.94638615     0.00800
C688        C  0.05646123  0.26032224  0.96768237     0.06800
C689        C  0.03832980  0.24641917  0.98659682    -0.06300
H690        H  0.04871044  0.25593669  0.92778285     0.07500
H691        H  0.04082554  0.25137427  0.00599126     0.08700
Cu692      Cu  0.98393206  0.20949766  0.92774231     0.44200
Cu693      Cu  0.97402879  0.20759602  0.99475758     0.42000
Cu694      Cu  0.90591310  0.19421198  0.95323966     0.43900
N695        N  0.94393174  0.19769586  0.90630363    -0.34900
N696        N  0.91450338  0.19399702  0.91597097    -0.29200
C697        C  0.89248488  0.19130113  0.89789616    -0.05300
C698        C  0.90893442  0.19281117  0.87576188     0.06900
C699        C  0.94155685  0.19686070  0.88167313     0.00700
H700        H  0.86633751  0.18943833  0.90066369     0.08400
H701        H  0.96163722  0.20134464  0.86908701     0.07500
N702        N  0.90264943  0.18985253  0.99085606    -0.36400
N703        N  0.92740622  0.19346255  0.00615608    -0.28500
C704        C  0.91704895  0.18596067  0.02901049    -0.03800
C705        C  0.88411639  0.17784985  0.02794615     0.04800
C706        C  0.87601559  0.18017157  0.00344797     0.02900
H707        H  0.93251106  0.18548411  0.04506470     0.08000
H708        H  0.85305281  0.17322768  0.99508761     0.06900
C709        C  0.21812626  0.30889280  0.07102901     0.80000
N710        N  0.22625515  0.33890078  0.08008887    -0.78300
C711        C  0.24770794  0.34176809  0.09888702     0.82400
N712        N  0.26098836  0.31443050  0.10882818    -0.78300
C713        C  0.25254577  0.28427123  0.10030922     0.82500
N714        N  0.23130277  0.28156852  0.08126469    -0.80000
C715        C  0.10832824  0.33155276  0.95126599     0.80000
N716        N  0.13105721  0.33089169  0.96930753    -0.78300
C717        C  0.12895078  0.30853832  0.98792662     0.82400
N718        N  0.10385166  0.28621263  0.98779440    -0.78300
C719        C  0.08184744  0.28589683  0.96918172     0.82500
N720        N  0.08405171  0.30877098  0.95109151    -0.80000
N721        N  0.35176315  0.02094039  0.84481210    -0.27500
N722        N  0.35924036  0.01597903  0.86811204    -0.35400
C723        C  0.38474310  0.03536697  0.87399089     0.00800
C724        C  0.39370672  0.05330703  0.85338572     0.06800
C725        C  0.37232642  0.04358191  0.83519488    -0.06300
H726        H  0.39602370  0.03617862  0.89190880     0.07500
H727        H  0.37188955  0.05205336  0.81635050     0.08700
Cu728      Cu  0.33458424  0.98312679  0.89092914     0.44200
Cu729      Cu  0.31456500  0.99593979  0.82730560     0.42000
Cu730      Cu  0.25494396  0.96146389  0.86996946     0.43900
N731        N  0.30361495  0.95115721  0.90975357    -0.34900
N732        N  0.27292542  0.94597769  0.90326332    -0.29200
C733        C  0.25993618  0.92203533  0.91741144    -0.05300
C734        C  0.28381860  0.91127401  0.93322310     0.06900
C735        C  0.31123245  0.93011781  0.92789249     0.00700
H736        H  0.23624740  0.91071390  0.91444706     0.08400
H737        H  0.33538043  0.92744728  0.93560452     0.07500
N738        N  0.25524071  0.95257950  0.83278126    -0.36400
N739        N  0.27794027  0.96353415  0.81738646    -0.28500
C740        C  0.27631427  0.94612526  0.79651490    -0.03800
C741        C  0.25158346  0.92299244  0.79911829     0.04800
C742        C  0.23851157  0.92806202  0.82211911     0.02900
H743        H  0.29314624  0.94886614  0.78128870     0.08000
H744        H  0.22046164  0.91279648  0.83137446     0.06900
N745        N  0.07991204  0.75157231  0.71526729    -0.27500
N746        N  0.06512248  0.76494336  0.69619306    -0.35400
C747        C  0.03364633  0.75505278  0.69616577     0.00800
C748        C  0.02850851  0.73446374  0.71614458     0.06800
C749        C  0.05832584  0.73290445  0.72787626    -0.06300
H750        H  0.01620687  0.76121224  0.68204576     0.07500
H751        H  0.06423236  0.71840050  0.74390752     0.08700
Cu752      Cu  0.08920703  0.79342467  0.66978873     0.44200
Cu753      Cu  0.12900644  0.75806302  0.72281584     0.42000
Cu754      Cu  0.17699130  0.78976450  0.67274610     0.43900
N755        N  0.12030867  0.81650326  0.64462031    -0.34900
N756        N  0.15228855  0.81230043  0.64448446    -0.29200
C757        C  0.16586557  0.83166351  0.62712569    -0.05300
C758        C  0.14136911  0.84938168  0.61609517     0.06900
C759        C  0.11277784  0.83927023  0.62761990     0.00700
H760        H  0.19189940  0.83520042  0.62457745     0.08400
H761        H  0.08857602  0.84894275  0.62474986     0.07500
N762        N  0.19334241  0.78849744  0.70849490    -0.36400
N763        N  0.17571230  0.77683616  0.72699594    -0.28500
C764        C  0.18745848  0.78916833  0.74803773    -0.03800
C765        C  0.21303168  0.81042742  0.74247265     0.04800
C766        C  0.21647090  0.80884727  0.71729782     0.02900
H767        H  0.17489140  0.78721748  0.76549785     0.08000
H768        H  0.23068212  0.82565473  0.70598788     0.06900
C769        C  0.97386973  0.56672744  0.81677370     0.80000
N770        N  0.99630325  0.54204839  0.81668463    -0.78300
C771        C  0.99846627  0.52138913  0.83634991     0.82400
N772        N  0.97888137  0.52598887  0.85598629    -0.78300
C773        C  0.95662885  0.55013661  0.85626426     0.82500
N774        N  0.95412791  0.57058433  0.83671056    -0.80000
C775        C  0.97476376  0.66921357  0.74193557     0.80000
N776        N  0.00004513  0.69082793  0.73911071    -0.78300
C777        C  0.99900989  0.71490926  0.72179047     0.82400
N778        N  0.97183967  0.71829692  0.70785280    -0.78300
C779        C  0.94632975  0.69701880  0.71055009     0.82500
N780        N  0.94806645  0.67233212  0.72732933    -0.80000
C781        C  0.46611572  0.20028003  0.74437788     0.80000
N782        N  0.43855829  0.21404371  0.73540123    -0.78300
C783        C  0.43976632  0.23449694  0.71565620     0.82400
N784        N  0.46906123  0.24212732  0.70522240    -0.78300
C785        C  0.49682650  0.22861541  0.71417793     0.82500
N786        N  0.49516714  0.20760858  0.73356834    -0.80000
C787        C  0.45315898  0.11399758  0.82828017     0.80000
N788        N  0.42721956  0.09297698  0.82999442    -0.78300
C789        C  0.42084706  0.07695198  0.85140265     0.82400
N790        N  0.43992357  0.08271968  0.87118233    -0.78300
C791        C  0.46606936  0.10328472  0.86948419     0.82500
N792        N  0.47303618  0.11862194  0.84791675    -0.80000
N793        N  0.05973005  0.45723843  0.83020967    -0.27500
N794        N  0.05089966  0.45379839  0.85346230    -0.35400
C795        C  0.02819527  0.47614797  0.85868693     0.00800
C796        C  0.02238245  0.49474095  0.83786420     0.06800
C797        C  0.04281995  0.48211892  0.82004477    -0.06300
H798        H  0.01678069  0.47876086  0.87650460     0.07500
H799        H  0.04500401  0.49009187  0.80113487     0.08700
Cu800      Cu  0.07009213  0.42001741  0.87814080     0.44200
Cu801      Cu  0.09375196  0.42685049  0.81402280     0.42000
Cu802      Cu  0.14007788  0.37761179  0.85850382     0.43900
N803        N  0.09562130  0.38841645  0.90102802    -0.34900
N804        N  0.12317578  0.37458314  0.89415873    -0.29200
C805        C  0.13334332  0.35425577  0.91202787    -0.05300
C806        C  0.11097654  0.35521391  0.93102214     0.06900
C807        C  0.08716689  0.37680433  0.92335471     0.00700
H808        H  0.15366464  0.33765479  0.91030515     0.08400
H809        H  0.06453981  0.38228618  0.93271960     0.07500
N810        N  0.14240039  0.37237002  0.82086520    -0.36400
N811        N  0.12557274  0.38966043  0.80474168    -0.28500
C812        C  0.13046724  0.37718292  0.78223218    -0.03800
C813        C  0.15075185  0.35046141  0.78448020     0.04800
C814        C  0.15822709  0.34841411  0.80910671     0.02900
H815        H  0.11916022  0.38614378  0.76562056     0.08000
H816        H  0.17367627  0.33059296  0.81797162     0.06900
N817        N  0.35644010  0.24682622  0.69586386    -0.27500
N818        N  0.37191887  0.26182016  0.67758119    -0.35400
C819        C  0.40432379  0.26089061  0.68199915     0.00800
C820        C  0.40904655  0.24458287  0.70412091     0.06800
C821        C  0.37817282  0.23616971  0.71232374    -0.06300
H822        H  0.42300430  0.27045527  0.66973203     0.07500
H823        H  0.37190331  0.22252247  0.72880213     0.08700
Cu824      Cu  0.34703087  0.28104941  0.64735993     0.44200
Cu825      Cu  0.30665082  0.24079176  0.69827157     0.42000
Cu826      Cu  0.25997046  0.25882269  0.64565556     0.43900
N827        N  0.31441043  0.29562043  0.61996452    -0.34900
N828        N  0.28387647  0.28483908  0.61831603    -0.29200
C829        C  0.26844203  0.30158269  0.60057729    -0.05300
C830        C  0.28989843  0.32456639  0.59087126     0.06900
C831        C  0.31883907  0.32008852  0.60354283     0.00700
H832        H  0.24234598  0.30042834  0.59753565     0.08400
H833        H  0.34050774  0.33549684  0.60249157     0.07500
N834        N  0.23945436  0.25423448  0.68015138    -0.36400
N835        N  0.25701969  0.24715279  0.69969554    -0.28500
C836        C  0.24012758  0.25487266  0.71994447    -0.03800
C837        C  0.21070046  0.26800781  0.71284765     0.04800
C838        C  0.21092087  0.26703023  0.68747221     0.02900
H839        H  0.25047889  0.25565781  0.73818065     0.08000
H840        H  0.19374346  0.27876328  0.67530955     0.06900
C841        C  0.28075522  0.90527749  0.49576803     0.80000
N842        N  0.27938775  0.88121629  0.47857768    -0.78300
C843        C  0.30402140  0.87735601  0.46225467     0.82400
N844        N  0.32939933  0.89893594  0.46202320    -0.78300
C845        C  0.33057230  0.92383170  0.47847106     0.82500
N846        N  0.30675230  0.92641714  0.49577544    -0.80000
C847        C  0.17756316  0.90504884  0.56935146     0.80000
N848        N  0.17105069  0.87796269  0.58324502    -0.78300
C849        C  0.14611618  0.87765804  0.59966687     0.82400
N850        N  0.12857718  0.90525914  0.60315033    -0.78300
C851        C  0.13635424  0.93324398  0.59067972     0.82500
N852        N  0.16061235  0.93299171  0.57361768    -0.80000
C853        C  0.75061018  0.30946779  0.45554771     0.80000
N854        N  0.74757211  0.31872801  0.43165750    -0.78300
C855        C  0.75715375  0.29836691  0.41341370     0.82400
N856        N  0.77052090  0.26907595  0.41909359    -0.78300
C857        C  0.77613514  0.26071889  0.44275089     0.82500
N858        N  0.76601830  0.28087634  0.46094351    -0.80000
C859        C  0.68591118  0.36477090  0.53869944     0.80000
N860        N  0.67682917  0.39604458  0.54353942    -0.78300
C861        C  0.65449752  0.40193906  0.56148852     0.82400
N862        N  0.64117162  0.37645025  0.57443344    -0.78300
C863        C  0.65069176  0.34525352  0.56988302     0.82500
N864        N  0.67290091  0.33961453  0.55196762    -0.80000
N865        N  0.11146542  0.01702851  0.60333888    -0.27500
N866        N  0.09398329  0.00030806  0.61966300    -0.35400
C867        C  0.09931764  0.96813365  0.61692640     0.00800
C868        C  0.12130440  0.96422724  0.59796928     0.06800
C869        C  0.12855354  0.99570872  0.58966683    -0.06300
H870        H  0.08886520  0.94908915  0.62854419     0.07500
H871        H  0.14564435  0.00264417  0.57530804     0.08700
Cu872      Cu  0.06570605  0.02138402  0.64636930     0.44200
Cu873      Cu  0.11095074  0.06801529  0.60161592     0.42000
Cu874      Cu  0.07685809  0.10702065  0.65608457     0.43900
N875        N  0.04086786  0.04684626  0.67282650    -0.34900
N876        N  0.04661089  0.07808315  0.67776650    -0.29200
C877        C  0.02347907  0.08873268  0.69326508    -0.05300
C878        C  0.00197196  0.06301406  0.69786659     0.06900
C879        C  0.01375656  0.03683555  0.68469935     0.00700
H880        H  0.02006259  0.11421232  0.69808333     0.08400
H881        H  0.00190874  0.01322748  0.68212078     0.07500
N882        N  0.08574063  0.13114201  0.62327533    -0.36400
N883        N  0.09740829  0.11698496  0.60334806    -0.28500
C884        C  0.08972137  0.13543009  0.58372488    -0.03800
C885        C  0.07192939  0.16217532  0.59152041     0.04800
C886        C  0.07022918  0.15870844  0.61674947     0.02900
H887        H  0.09183895  0.12701984  0.56499233     0.08000
H888        H  0.05420309  0.17204128  0.62887834     0.06900
N889        N  0.84286263  0.21050696  0.46310842    -0.27500
N890        N  0.83924414  0.19988438  0.44032858    -0.35400
C891        C  0.81256325  0.21363414  0.43061931     0.00800
C892        C  0.79885624  0.23402096  0.44793722     0.06800
C893        C  0.81841919  0.23110959  0.46841636    -0.06300
H894        H  0.80588069  0.21188711  0.41146673     0.07500
H895        H  0.81736397  0.24594250  0.48481286     0.08700
Cu896      Cu  0.87410876  0.17527289  0.41995663     0.44200
Cu897      Cu  0.88459924  0.20508035  0.48414508     0.42000
Cu898      Cu  0.95208271  0.18201223  0.44786672     0.43900
N899        N  0.91679061  0.16293862  0.40180949    -0.34900
N900        N  0.94543988  0.16647653  0.41257279    -0.29200
C901        C  0.96924570  0.16147358  0.39623491    -0.05300
C902        C  0.95511534  0.15436590  0.37396152     0.06900
C903        C  0.92170428  0.15536115  0.37801420     0.00700
H904        H  0.99500981  0.16487215  0.39997664     0.08400
H905        H  0.90264075  0.15358654  0.36436169     0.07500
N906        N  0.95647095  0.19443568  0.48404786    -0.36400
N907        N  0.93157342  0.20254987  0.49807091    -0.28500
C908        C  0.94228966  0.20670109  0.52119660    -0.03800
C909        C  0.97561109  0.20037680  0.52164048     0.04800
C910        C  0.98358396  0.19300758  0.49763966     0.02900
H911        H  0.92673894  0.21331807  0.53636427     0.08000
H912        H  0.00709485  0.18528815  0.49076855     0.06900
N913        N  0.39882379  0.98109432  0.48423015    -0.27500
N914        N  0.39669538  0.97830853  0.46011274    -0.35400
C915        C  0.37135548  0.95858462  0.45459945     0.00800
C916        C  0.35643683  0.94881474  0.47619285     0.06800
C917        C  0.37421109  0.96369756  0.49469765    -0.06300
H918        H  0.36513350  0.95078177  0.43623186     0.07500
H919        H  0.37111004  0.96002934  0.51424677     0.08700
Cu920      Cu  0.43017840  0.99721126  0.43529028     0.44200
Cu921      Cu  0.43899055  0.00254984  0.50140733     0.42000
Cu922      Cu  0.50920015  0.01109739  0.46026795     0.43900
N923        N  0.46994073  0.01003705  0.41386529    -0.34900
N924        N  0.49968160  0.01286484  0.42298523    -0.29200
C925        C  0.52089781  0.01833539  0.40451982    -0.05300
C926        C  0.50350277  0.01957481  0.38283898     0.06900
C927        C  0.47125621  0.01420806  0.38937572     0.00700
H928        H  0.54704315  0.02112834  0.40670778     0.08400
H929        H  0.45055578  0.01190721  0.37718483     0.07500
N930        N  0.51083907  0.01972548  0.49768083    -0.36400
N931        N  0.48523171  0.01805276  0.51254205    -0.28500
C932        C  0.49392596  0.02979233  0.53467351    -0.03800
C933        C  0.52653671  0.03897033  0.53364558     0.04800
C934        C  0.53638398  0.03245183  0.50993595     0.02900
H935        H  0.47727172  0.03331140  0.54986286     0.08000
H936        H  0.55966800  0.03888999  0.50166665     0.06900
N937        N  0.63239001  0.26761835  0.60010826    -0.27500
N938        N  0.61392964  0.28729425  0.61331509    -0.35400
C939        C  0.61718652  0.31816405  0.60457609     0.00800
C940        C  0.63867158  0.31763697  0.58491533     0.06800
C941        C  0.64776188  0.28524706  0.58261455    -0.06300
H942        H  0.60503132  0.33934641  0.61207265     0.07500
H943        H  0.66438604  0.27516960  0.56921298     0.08700
Cu944      Cu  0.58584298  0.27049175  0.64263535     0.44200
Cu945      Cu  0.63495449  0.21747513  0.60540246     0.42000
Cu946      Cu  0.59888540  0.18403922  0.65911127     0.43900
N947        N  0.56280078  0.24605094  0.67148151    -0.34900
N948        N  0.56998610  0.21590580  0.67868308    -0.29200
C949        C  0.54915789  0.20653648  0.69650656    -0.05300
C950        C  0.52737156  0.23158626  0.70032599     0.06900
C951        C  0.53665385  0.25630708  0.68421846     0.00700
H952        H  0.54759877  0.18191692  0.70402380     0.08400
H953        H  0.52415024  0.27916135  0.68090372     0.07500
N954        N  0.61053788  0.15542705  0.62921544    -0.36400
N955        N  0.62418461  0.16810596  0.60928935    -0.28500
C956        C  0.62005121  0.14717043  0.59061169    -0.03800
C957        C  0.60256031  0.12005082  0.59898025     0.04800
C958        C  0.59713578  0.12607559  0.62365150     0.02900
H959        H  0.62497340  0.15341717  0.57161821     0.08000
H960        H  0.58030736  0.11281939  0.63553440     0.06900
C961        C  0.56230806  0.04485188  0.57014891    -0.20500
C962        C  0.54437050  0.05967244  0.55129096    -0.07100
C963        C  0.54486263  0.09412586  0.54867987     0.13800
C964        C  0.56393859  0.11302101  0.56464537    -0.20600
C965        C  0.58247100  0.09835439  0.58326531    -0.07100
C966        C  0.58133376  0.06389109  0.58631897     0.13700
C967        C  0.60091845  0.04717467  0.60600849    -0.23900
H968        H  0.56180128  0.01833808  0.57196146     0.15000
H969        H  0.56430921  0.13951169  0.56261484     0.15100
C970        C  0.52526718  0.11100030  0.52903254    -0.23900
H971        H  0.59806021  0.02004772  0.60527064     0.05300
H972        H  0.59266373  0.05534199  0.62437723     0.08500
H973        H  0.62723204  0.05334269  0.60364773     0.08500
H974        H  0.49895543  0.10485301  0.53141661     0.08500
H975        H  0.53347202  0.10287061  0.51063069     0.08500
H976        H  0.52810931  0.13812731  0.52981842     0.05300
C977        C  0.01412203  0.17211037  0.58136275    -0.20500
C978        C  0.04719669  0.17853645  0.57623092    -0.07100
C979        C  0.05583037  0.19655544  0.55502564     0.13800
C980        C  0.03127448  0.20594498  0.53863045    -0.20600
C981        C  0.99833350  0.19713634  0.54265273    -0.07100
C982        C  0.98953056  0.18085552  0.56478810     0.13700
C983        C  0.95489650  0.17041219  0.57051781    -0.23900
H984        H  0.00765101  0.15817375  0.59770316     0.15000
H985        H  0.03805974  0.21887992  0.52190923     0.15100
C986        C  0.09092122  0.20542907  0.54950058    -0.23900
H987        H  0.95327185  0.15574313  0.58773034     0.05300
H988        H  0.94501777  0.15496063  0.55548591     0.08500
H989        H  0.93957303  0.19236886  0.57317573     0.08500
H990        H  0.10548743  0.18287661  0.54706769     0.08500
H991        H  0.10122202  0.21997476  0.56487640     0.08500
H992        H  0.09326284  0.22031913  0.53243651     0.05300
C993        C  0.75056150  0.32601177  0.49930874    -0.20500
C994        C  0.73678768  0.32945599  0.47581499    -0.07100
C995        C  0.70878037  0.34944860  0.47300214     0.13800
C996        C  0.69419908  0.36314187  0.49390751    -0.20600
C997        C  0.70653040  0.35711103  0.51739094    -0.07100
C998        C  0.73568621  0.33943580  0.52010476     0.13700
C999        C  0.75096680  0.33450480  0.54496850    -0.23900
H1000       H  0.77252376  0.31171753  0.50159682     0.15000
H1001       H  0.67179080  0.37687362  0.49209570     0.15100
C1002       C  0.69274019  0.35507703  0.44849232    -0.23900
H1003       H  0.77434871  0.32103834  0.54368299     0.05300
H1004       H  0.73425846  0.32011899  0.55707606     0.08500
H1005       H  0.75608767  0.35874590  0.55344833     0.08500
H1006       H  0.68523032  0.33122790  0.44037115     0.08500
H1007       H  0.70987794  0.36827669  0.43596482     0.08500
H1008       H  0.67051369  0.37031018  0.45015461     0.05300
C1009       C  0.22081797  0.93412854  0.54513987    -0.20500
C1010       C  0.20391294  0.90469628  0.55051446    -0.07100
C1011       C  0.21216855  0.87593422  0.53747542     0.13800
C1012       C  0.23739133  0.87731507  0.52008258    -0.20600
C1013       C  0.25476366  0.90652605  0.51493976    -0.07100
C1014       C  0.24607936  0.93550844  0.52759325     0.13700
C1015       C  0.26243188  0.96818601  0.52243714    -0.23900
H1016       H  0.21441929  0.95626880  0.55491178     0.15000
H1017       H  0.24369213  0.85502283  0.51047977     0.15100
C1018       C  0.19406354  0.84373993  0.54096462    -0.23900
H1019       H  0.25098353  0.98834922  0.53295078     0.05300
H1020       H  0.26040898  0.97431858  0.50262467     0.08500
H1021       H  0.28850635  0.96738706  0.52785973     0.08500
H1022       H  0.16747388  0.84735769  0.53825017     0.08500
H1023       H  0.19870557  0.83368401  0.55956921     0.08500
H1024       H  0.20209831  0.82492063  0.52762439     0.05300
C1025       C  0.17905585  0.34344368  0.74488064    -0.20500
C1026       C  0.16248936  0.32897214  0.76476199    -0.07100
C1027       C  0.15858105  0.29445646  0.76587502     0.13800
C1028       C  0.17318759  0.27512041  0.74777164    -0.20600
C1029       C  0.19110266  0.28952197  0.72854700    -0.07100
C1030       C  0.19376370  0.32411928  0.72682961     0.13700
C1031       C  0.21352657  0.34073495  0.70683931    -0.23900
H1032       H  0.18172018  0.36994104  0.74408462     0.15000
H1033       H  0.17136557  0.24858311  0.74894299     0.15100
C1034       C  0.13857467  0.27792274  0.78575722    -0.23900
H1035       H  0.21410103  0.36783692  0.70900099     0.05300
H1036       H  0.20267060  0.33527760  0.68867450     0.08500
H1037       H  0.23910051  0.33196594  0.70731600     0.08500
H1038       H  0.11357299  0.28820659  0.78598526     0.08500
H1039       H  0.15014020  0.28158354  0.80389721     0.08500
H1040       H  0.13636105  0.25103845  0.78275272     0.05300
C1041       C  0.48098388  0.12992009  0.78958666    -0.20500
C1042       C  0.45637395  0.13572793  0.80683952    -0.07100
C1043       C  0.43530420  0.16249868  0.80370068     0.13800
C1044       C  0.43934290  0.18307895  0.78323552    -0.20600
C1045       C  0.46401399  0.17760757  0.76577001    -0.07100
C1046       C  0.48503103  0.15038561  0.76892470     0.13700
C1047       C  0.51098864  0.14190214  0.75038551    -0.23900
H1048       H  0.49691167  0.10912041  0.79223415     0.15000
H1049       H  0.42323495  0.20381044  0.78100838     0.15100
C1050       C  0.40888432  0.16967903  0.82219035    -0.23900
H1051       H  0.52323374  0.11849727  0.75505544     0.05300
H1052       H  0.53013153  0.16138011  0.74985322     0.08500
H1053       H  0.49985733  0.13907292  0.73194939     0.08500
H1054       H  0.41993754  0.17366838  0.84053287     0.08500
H1055       H  0.39136355  0.14872384  0.82325005     0.08500
H1056       H  0.39499915  0.19199202  0.81719106     0.05300
C1057       C  0.00348163  0.60307060  0.78715615    -0.20500
C1058       C  0.97357505  0.59177852  0.79683661    -0.07100
C1059       C  0.94425067  0.60562157  0.78803624     0.13800
C1060       C  0.94572348  0.63053480  0.77015680    -0.20600
C1061       C  0.97564767  0.64260628  0.76088638    -0.07100
C1062       C  0.00503474  0.62844915  0.76955477     0.13700
C1063       C  0.03820488  0.63930956  0.76029465    -0.23900
H1064       H  0.02594273  0.59255169  0.79393585     0.15000
H1065       H  0.92312242  0.64104406  0.76365327     0.15100
C1066       C  0.91115170  0.59381621  0.79685213    -0.23900
H1067       H  0.05804411  0.62403339  0.76799189     0.05300
H1068       H  0.04323929  0.66501784  0.76588002     0.08500
H1069       H  0.03925907  0.63720525  0.74000047     0.08500
H1070       H  0.90763325  0.60012137  0.81644916     0.08500
H1071       H  0.90892475  0.56683714  0.79442304     0.08500
H1072       H  0.89102340  0.60545179  0.78645366     0.05300
C1073       C  0.21058013  0.89121874  0.77641952    -0.20500
C1074       C  0.24332899  0.89519802  0.78307451    -0.07100
C1075       C  0.26633543  0.87112436  0.77640712     0.13800
C1076       C  0.25570269  0.84337302  0.76334296    -0.20600
C1077       C  0.22276972  0.83920052  0.75707955    -0.07100
C1078       C  0.20000735  0.86376868  0.76322117     0.13700
C1079       C  0.16474227  0.86179989  0.75536297    -0.23900
H1080       H  0.19313814  0.90978614  0.78166176     0.15000
H1081       H  0.27305957  0.82472241  0.75813336     0.15100
C1082       C  0.30169647  0.87387271  0.78376923    -0.23900
H1083       H  0.15118952  0.88427944  0.76037749     0.05300
H1084       H  0.15225040  0.84075633  0.76449178     0.08500
H1085       H  0.16331710  0.85900661  0.73513433     0.08500
H1086       H  0.30358244  0.87619998  0.80401070     0.08500
H1087       H  0.31322802  0.89558177  0.77479368     0.08500
H1088       H  0.31571454  0.85194369  0.77815603     0.05300
C1089       C  0.20107584  0.32955178  0.03036682    -0.20500
C1090       C  0.19636327  0.30669561  0.04938028    -0.07100
C1091       C  0.17039536  0.28372353  0.04772842     0.13800
C1092       C  0.14925836  0.28497582  0.02747106    -0.20600
C1093       C  0.15339151  0.30832726  0.00843808    -0.07100
C1094       C  0.18042772  0.33058688  0.00985487     0.13700
C1095       C  0.18832494  0.35567762  0.99017225    -0.23900
H1096       H  0.22132144  0.34685567  0.03159151     0.15000
H1097       H  0.12911807  0.26754749  0.02674362     0.15100
C1098       C  0.16401428  0.25859414  0.06763687    -0.23900
H1099       H  0.21079479  0.37007063  0.99441197     0.05300
H1100       H  0.16811286  0.37347000  0.98850550     0.08500
H1101       H  0.19263562  0.34320194  0.97240270     0.08500
H1102       H  0.16069138  0.27106635  0.08553007     0.08500
H1103       H  0.18479348  0.24141032  0.06882771     0.08500
H1104       H  0.14165306  0.24374909  0.06397093     0.05300
C1105       C  0.81150984  0.15488325  0.06821718    -0.20500
C1106       C  0.82314243  0.12641872  0.07950025    -0.07100
C1107       C  0.85584371  0.11679422  0.07567450     0.13800
C1108       C  0.87579762  0.13525990  0.05975497    -0.20600
C1109       C  0.86367196  0.16272009  0.04734881    -0.07100
C1110       C  0.83149609  0.17332393  0.05218229     0.13700
C1111       C  0.81838198  0.20431461  0.04087436    -0.23900
H1112       H  0.78651789  0.16223728  0.07153001     0.15000
H1113       H  0.90051024  0.12731263  0.05606261     0.15100
C1114       C  0.86944703  0.08645502  0.08769821    -0.23900
H1115       H  0.79355842  0.20991158  0.04787580     0.05300
H1116       H  0.81667748  0.20186633  0.02068287     0.08500
H1117       H  0.83473599  0.22533971  0.04539921     0.08500
H1118       H  0.85514723  0.06446749  0.08205425     0.08500
H1119       H  0.86835250  0.08889381  0.10795690     0.08500
H1120       H  0.89533948  0.08247684  0.08246289     0.05300
C1121       C  0.70639727  0.84184180  0.00471754    -0.20500
C1122       C  0.70400233  0.85725545  0.02752396    -0.07100
C1123       C  0.67920658  0.88041295  0.03154103     0.13800
C1124       C  0.65934708  0.88977677  0.01195461    -0.20600
C1125       C  0.66396983  0.87727185  0.98816599    -0.07100
C1126       C  0.68687009  0.85157972  0.98483896     0.13700
C1127       C  0.69223990  0.83500869  0.96049876    -0.23900
H1128       H  0.72515588  0.82362320  0.00201148     0.15000
H1129       H  0.64099012  0.90823353  0.01516381     0.15100
C1130       C  0.67357896  0.89550004  0.05643507    -0.23900
H1131       H  0.71059451  0.81520161  0.96179897     0.05300
H1132       H  0.70147219  0.85308554  0.94675870     0.08500
H1133       H  0.66905418  0.82358103  0.95411739     0.08500
H1134       H  0.69466120  0.91121392  0.06171543     0.08500
H1135       H  0.66991070  0.87579992  0.07036378     0.08500
H1136       H  0.65159380  0.91123171  0.05660838     0.05300
C1137       C  0.38828126  0.04341248  0.04300142    -0.20500
C1138       C  0.42049298  0.04914489  0.05070602    -0.07100
C1139       C  0.42666818  0.05685698  0.07547030     0.13800
C1140       C  0.40025823  0.06039662  0.09164809    -0.20600
C1141       C  0.36779735  0.05669050  0.08363035    -0.07100
C1142       C  0.36185985  0.04659935  0.05922851     0.13700
C1143       C  0.32809032  0.03920091  0.04965732    -0.23900
H1144       H  0.38364739  0.03712525  0.02400050     0.15000
H1145       H  0.40505450  0.06836802  0.11023334     0.15100
C1146       C  0.46079455  0.06386185  0.08449506    -0.23900
H1147       H  0.32737527  0.01394841  0.04207435     0.05300
H1148       H  0.32200946  0.05687357  0.03482426     0.08500
H1149       H  0.30902547  0.04036005  0.06409888     0.08500
H1150       H  0.47198633  0.08422185  0.07362215     0.08500
H1151       H  0.47590927  0.04157417  0.08271846     0.08500
H1152       H  0.46096982  0.07115874  0.10410717     0.05300
C1153       C  0.93578114  0.10859241  0.28555222    -0.20500
C1154       C  0.96874679  0.11789105  0.28853652    -0.07100
C1155       C  0.99269234  0.10324807  0.27340656     0.13800
C1156       C  0.98304880  0.07978817  0.25620191    -0.20600
C1157       C  0.95033464  0.06949093  0.25371533    -0.07100
C1158       C  0.92620180  0.08462141  0.26838372     0.13700
C1159       C  0.89061385  0.07505872  0.26683242    -0.23900
H1160       H  0.91740013  0.11976141  0.29707716     0.15000
H1161       H  0.00171819  0.06887506  0.24481343     0.15100
C1162       C  0.02880540  0.11053676  0.27582849    -0.23900
H1163       H  0.87556121  0.08857431  0.28034805     0.05300
H1164       H  0.88753538  0.04840839  0.27068415     0.08500
H1165       H  0.88109666  0.08090413  0.24828936     0.08500
H1166       H  0.03684416  0.10561887  0.29492851     0.08500
H1167       H  0.03407985  0.13645611  0.27069229     0.08500
H1168       H  0.04377263  0.09499232  0.26355387     0.05300
C1169       C  0.11937262  0.38803446  0.23024084    -0.20500
C1170       C  0.09793901  0.40134273  0.24751229    -0.07100
C1171       C  0.09180538  0.43541494  0.24722681     0.13800
C1172       C  0.10936000  0.45573510  0.23083708    -0.20600
C1173       C  0.13262850  0.44259674  0.21483673    -0.07100
C1174       C  0.13720486  0.40820014  0.21414726     0.13700
C1175       C  0.16257675  0.39265695  0.19789125    -0.23900
H1176       H  0.12419640  0.36191815  0.23064082     0.15000
H1177       H  0.10592197  0.48208146  0.23118945     0.15100
C1178       C  0.06697551  0.45033136  0.26420468    -0.23900
H1179       H  0.16406570  0.36573632  0.20097880     0.05300
H1180       H  0.18703956  0.40345077  0.20173348     0.08500
H1181       H  0.15632597  0.39652465  0.17832217     0.08500
H1182       H  0.07436087  0.44715634  0.28360624     0.08500
H1183       H  0.04281674  0.43831557  0.26135987     0.08500
H1184       H  0.06428067  0.47705638  0.26072606     0.05300
C1185       C  0.39581312  0.60793510  0.29244453    -0.20500
C1186       C  0.42622738  0.61298863  0.30374515    -0.07100
C1187       C  0.45411411  0.59784183  0.29358769     0.13800
C1188       C  0.45054133  0.57724921  0.27314821    -0.20600
C1189       C  0.41992172  0.57114568  0.26229524    -0.07100
C1190       C  0.39217558  0.58732618  0.27198064     0.13700
C1191       C  0.35865000  0.58381744  0.26083756    -0.23900
H1192       H  0.37445476  0.61976765  0.29998949     0.15000
H1193       H  0.47202514  0.56542831  0.26582366     0.15100
C1194       C  0.48796714  0.60388947  0.30357325    -0.23900
H1195       H  0.34068275  0.60020057  0.26974596     0.05300
H1196       H  0.34941156  0.55829582  0.26323807     0.08500
H1197       H  0.35961747  0.59040646  0.24104657     0.08500
H1198       H  0.49010001  0.59321949  0.32225507     0.08500
H1199       H  0.49323738  0.63067989  0.30409103     0.08500
H1200       H  0.50701399  0.59234428  0.29201375     0.05300
C1201       C  0.19988887  0.86999102  0.25034243    -0.20500
C1202       C  0.19845365  0.90324580  0.25673942    -0.07100
C1203       C  0.20876977  0.91331179  0.28021741     0.13800
C1204       C  0.22062393  0.88977812  0.29670439    -0.20600
C1205       C  0.22203962  0.85641958  0.29034781    -0.07100
C1206       C  0.21120640  0.84634541  0.26692389     0.13700
C1207       C  0.20972854  0.81068161  0.25968128    -0.23900
H1208       H  0.19111881  0.86233197  0.23249300     0.15000
H1209       H  0.22899772  0.89751693  0.31463493     0.15100
C1210       C  0.20790442  0.94884440  0.28774596    -0.23900
H1211       H  0.19753383  0.80726446  0.24168033     0.05300
H1212       H  0.19566298  0.79635056  0.27360603     0.08500
H1213       H  0.23465743  0.80070969  0.25792291     0.08500
H1214       H  0.18237128  0.95763176  0.28794231     0.08500
H1215       H  0.22255603  0.96396264  0.27464828     0.08500
H1216       H  0.21810659  0.95251011  0.30640808     0.05300
C1217       C  0.22399217  0.81550160  0.00886342    -0.20500
C1218       C  0.22966524  0.84673494  0.99840250    -0.07100
C1219       C  0.21090952  0.87355369  0.00699241     0.13800
C1220       C  0.18778649  0.86827859  0.02566531    -0.20600
C1221       C  0.18248182  0.83722137  0.03631484    -0.07100
C1222       C  0.20078766  0.81032046  0.02759857     0.13700
C1223       C  0.19701198  0.77623478  0.03825927    -0.23900
H1224       H  0.23791714  0.79478193  0.00239991     0.15000
H1225       H  0.17359442  0.88888122  0.03202918     0.15100
C1226       C  0.21515702  0.90817307  0.99735425    -0.23900
H1227       H  0.21481654  0.75890758  0.03022262     0.05300
H1228       H  0.17223019  0.76634603  0.03432290     0.08500
H1229       H  0.20116810  0.77683759  0.05837956     0.08500
H1230       H  0.20825796  0.90931805  0.97769174     0.08500
H1231       H  0.24082782  0.91654530  0.99984250     0.08500
H1232       H  0.19937100  0.92582896  0.00718777     0.05300
C1233       C  0.49823457  0.59037919  0.03726963    -0.20500
C1234       C  0.51426956  0.61235087  0.05306008    -0.07100
C1235       C  0.50805279  0.64627347  0.05111813     0.13800
C1236       C  0.48618282  0.65741332  0.03318575    -0.20600
C1237       C  0.47045154  0.63543490  0.01720217    -0.07100
C1238       C  0.47623229  0.60142094  0.01948907     0.13700
C1239       C  0.45819268  0.57648164  0.00412589    -0.23900
H1240       H  0.50242388  0.56426476  0.03921409     0.15000
H1241       H  0.48166689  0.68348650  0.03139622     0.15100
C1242       C  0.52508978  0.67081040  0.06739675    -0.23900
H1243       H  0.46385684  0.55095195  0.00981891     0.05300
H1244       H  0.46525184  0.57907692  0.98457144     0.08500
H1245       H  0.43144451  0.57986985  0.00613291     0.08500
H1246       H  0.55195823  0.66846961  0.06538576     0.08500
H1247       H  0.51809075  0.66651968  0.08683007     0.08500
H1248       H  0.51848194  0.69642051  0.06259975     0.05300
C1249       C  0.97825097  0.54218238  0.06600012    -0.20500
C1250       C  0.99012750  0.52160988  0.04754897    -0.07100
C1251       C  0.02359510  0.51338105  0.04724542     0.13800
C1252       C  0.04499782  0.52887618  0.06368285    -0.20600
C1253       C  0.03356240  0.55177609  0.08063042    -0.07100
C1254       C  0.99960884  0.55752364  0.08256222     0.13700
C1255       C  0.98598438  0.58143729  0.10087141    -0.23900
H1256       H  0.95252169  0.54817802  0.06631765     0.15000
H1257       H  0.07098172  0.52421334  0.06259718     0.15100
C1258       C  0.03682704  0.48831377  0.02966448    -0.23900
H1259       H  0.95909953  0.58387131  0.09908404     0.05300
H1260       H  0.99721188  0.60610228  0.09799993     0.08500
H1261       H  0.99106188  0.57279239  0.11979848     0.08500
H1262       H  0.03459964  0.49695135  0.01044927     0.08500
H1263       H  0.02313268  0.46480815  0.03195181     0.08500
H1264       H  0.06306972  0.48344873  0.03307680     0.05300
C1265       C  0.71604602  0.39527072  0.01605643    -0.20500
C1266       C  0.71209539  0.37945746  0.99330110    -0.07100
C1267       C  0.68845758  0.35355386  0.99167049     0.13800
C1268       C  0.66823914  0.34640467  0.01198843    -0.20600
C1269       C  0.67058905  0.36433496  0.03377778    -0.07100
C1270       C  0.69565379  0.38819163  0.03616426     0.13700
C1271       C  0.70146445  0.40600285  0.05999594    -0.23900
H1272       H  0.73460033  0.41420833  0.01809042     0.15000
H1273       H  0.64939932  0.32761064  0.01048265     0.15100
C1274       C  0.68358036  0.33333653  0.96881581    -0.23900
H1275       H  0.72376946  0.42174990  0.05915890     0.05300
H1276       H  0.70467678  0.38793208  0.07510072     0.08500
H1277       H  0.68064062  0.42220177  0.06425593     0.08500
H1278       H  0.70695064  0.32179792  0.96340389     0.08500
H1279       H  0.67425353  0.34894352  0.95369308     0.08500
H1280       H  0.66539242  0.31322913  0.97169342     0.05300
C1281       C  0.70772429  0.82122669  0.53463153    -0.20500
C1282       C  0.72874301  0.84806545  0.53052800    -0.07100
C1283       C  0.72468047  0.86751261  0.50925658     0.13800
C1284       C  0.70050427  0.85870737  0.49218542    -0.20600
C1285       C  0.68007329  0.83096464  0.49572341    -0.07100
C1286       C  0.68341636  0.81239592  0.51778479     0.13700
C1287       C  0.66249354  0.78268788  0.52392619    -0.23900
H1288       H  0.71064429  0.80669779  0.55119372     0.15000
H1289       H  0.69804034  0.87341204  0.47568833     0.15100
C1290       C  0.74659535  0.89666080  0.50384936    -0.23900
H1291       H  0.66905092  0.77162928  0.54189931     0.05300
H1292       H  0.66584088  0.76340657  0.50984495     0.08500
H1293       H  0.63644259  0.78978874  0.52516102     0.08500
H1294       H  0.77250302  0.88888945  0.50354616     0.08500
H1295       H  0.74320470  0.91574383  0.51806222     0.08500
H1296       H  0.74103114  0.90799529  0.48577895     0.05300
C1297       C  0.83440259  0.55908555  0.54764484    -0.20500
C1298       C  0.85449072  0.57432388  0.56510178    -0.07100
C1299       C  0.88853400  0.56867542  0.56462266     0.13800
C1300       C  0.90156711  0.54835196  0.54649911    -0.20600
C1301       C  0.88172767  0.53386005  0.52856317    -0.07100
C1302       C  0.84751234  0.53867056  0.52945145     0.13700
C1303       C  0.82455084  0.52182886  0.51183977    -0.23900
H1304       H  0.80836010  0.56361027  0.54806081     0.15000
H1305       H  0.92775314  0.54486321  0.54573902     0.15100
C1306       C  0.91170360  0.58541481  0.58214501    -0.23900
H1307       H  0.79859690  0.52596132  0.51683788     0.05300
H1308       H  0.82876368  0.49495209  0.51213183     0.08500
H1309       H  0.82809433  0.53148711  0.49299337     0.08500
H1310       H  0.90720006  0.57652016  0.60111344     0.08500
H1311       H  0.90855948  0.61243116  0.58120362     0.08500
H1312       H  0.93761577  0.58015633  0.57770320     0.05300
C1313       C  0.36740022  0.68161644  0.54164112    -0.20500
C1314       C  0.39990571  0.67766525  0.54914619    -0.07100
C1315       C  0.40642909  0.66737676  0.57338651     0.13800
C1316       C  0.38025409  0.65869180  0.58882557    -0.20600
C1317       C  0.34771013  0.65988515  0.58063248    -0.07100
C1318       C  0.34116839  0.67314815  0.55717286     0.13700
C1319       C  0.30671620  0.67836653  0.54840320    -0.23900
H1320       H  0.36255318  0.69009095  0.52313012     0.15000
H1321       H  0.38556551  0.64859482  0.60677092     0.15100
C1322       C  0.44083032  0.66299434  0.58252178    -0.23900
H1323       H  0.30629380  0.69084232  0.53023335     0.05300
H1324       H  0.29349651  0.69399893  0.56169188     0.08500
H1325       H  0.29352960  0.65466040  0.54645243     0.08500
H1326       H  0.45382804  0.68701929  0.58262154     0.08500
H1327       H  0.45405216  0.64557833  0.57055007     0.08500
H1328       H  0.44129277  0.65309147  0.60154879     0.05300
C1329       C  0.19414976  0.35698412  0.49428249    -0.20500
C1330       C  0.16736907  0.37843896  0.49539753    -0.07100
C1331       C  0.16612145  0.40103655  0.51526207     0.13800
C1332       C  0.19126588  0.40128319  0.53292152    -0.20600
C1333       C  0.21755255  0.37951938  0.53172875    -0.07100
C1334       C  0.21904117  0.35721974  0.51196300     0.13700
C1335       C  0.24744519  0.33433133  0.50871872    -0.23900
H1336       H  0.19591437  0.33965488  0.47934443     0.15000
H1337       H  0.19023588  0.41847312  0.54802268     0.15100
C1338       C  0.13885202  0.42527884  0.51826464    -0.23900
H1339       H  0.24585371  0.32049816  0.49124081     0.05300
H1340       H  0.24781553  0.31602073  0.52384469     0.08500
H1341       H  0.27071349  0.34860774  0.50846183     0.08500
H1342       H  0.11519844  0.41201991  0.52058275     0.08500
H1343       H  0.13796873  0.44188017  0.50206597     0.08500
H1344       H  0.14229314  0.44092619  0.53471156     0.05300
C1345       C  0.93444469  0.14862508  0.78975823    -0.20500
C1346       C  0.90429079  0.16475175  0.78797572    -0.07100
C1347       C  0.88442345  0.15872117  0.76705104     0.13800
C1348       C  0.89489705  0.13637163  0.74931691    -0.20600
C1349       C  0.92439726  0.11950259  0.75159241    -0.07100
C1350       C  0.94472693  0.12608557  0.77197570     0.13700
C1351       C  0.97656885  0.10856732  0.77582417    -0.23900
H1352       H  0.94997325  0.15318292  0.80546631     0.15000
H1353       H  0.87952535  0.13168599  0.73352810     0.15100
C1354       C  0.85160544  0.17447852  0.76317735    -0.23900
H1355       H  0.98817368  0.11538376  0.79350435     0.05300
H1356       H  0.99405935  0.11521294  0.76096550     0.08500
H1357       H  0.97226050  0.08160333  0.77605637     0.08500
H1358       H  0.85461882  0.20151415  0.76151678     0.08500
H1359       H  0.83490381  0.16808993  0.77861403     0.08500
H1360       H  0.83960499  0.16593078  0.74607109     0.05300
C1361       C  0.77313616  0.47249367  0.73653564    -0.20500
C1362       C  0.76768444  0.43884538  0.73239762    -0.07100
C1363       C  0.75675384  0.42844971  0.70901590     0.13800
C1364       C  0.74947459  0.45213911  0.69114329    -0.20600
C1365       C  0.75242611  0.48581861  0.69606730    -0.07100
C1366       C  0.76562865  0.49610864  0.71865788     0.13700
C1367       C  0.77158194  0.53193492  0.72400651    -0.23900
H1368       H  0.78215555  0.48044178  0.75424285     0.15000
H1369       H  0.73930410  0.44431948  0.67376225     0.15100
C1370       C  0.75033678  0.39284143  0.70311875    -0.23900
H1371       H  0.78323886  0.53551281  0.74218993     0.05300
H1372       H  0.74821916  0.54541942  0.72407844     0.08500
H1373       H  0.78805140  0.54268822  0.70979103     0.08500
H1374       H  0.73329886  0.38180685  0.71682754     0.08500
H1375       H  0.77364680  0.37929627  0.70284021     0.08500
H1376       H  0.73910008  0.38980296  0.68473171     0.05300
C1377       C  0.46088617  0.61362226  0.75193598    -0.20500
C1378       C  0.48863177  0.61089396  0.73680179    -0.07100
C1379       C  0.51687387  0.62983781  0.74265138     0.13800
C1380       C  0.51571027  0.65191781  0.76233344    -0.20600
C1381       C  0.48748530  0.65566930  0.77677017    -0.07100
C1382       C  0.45989461  0.63540295  0.77182080     0.13700
C1383       C  0.42882679  0.63686176  0.78672694    -0.23900
H1384       H  0.43945959  0.59869083  0.74809577     0.15000
H1385       H  0.53722183  0.66663392  0.76636915     0.15100
C1386       C  0.54830771  0.62788447  0.72822583    -0.23900
H1387       H  0.40958853  0.62011101  0.77949778     0.05300
H1388       H  0.41897362  0.66213707  0.78628216     0.08500
H1389       H  0.43364507  0.62919374  0.80594045     0.08500
H1390       H  0.54389258  0.63420411  0.70868438     0.08500
H1391       H  0.55848260  0.60283102  0.72982029     0.08500
H1392       H  0.56722427  0.64522562  0.73515996     0.05300
C1393       C  0.66017538  0.95925845  0.68828488    -0.20500
C1394       C  0.66485678  0.99230462  0.69473049    -0.07100
C1395       C  0.65222509  0.00345684  0.71731650     0.13800
C1396       C  0.63800217  0.98067290  0.73368571    -0.20600
C1397       C  0.63595111  0.94696001  0.72817537    -0.07100
C1398       C  0.64584327  0.93645866  0.70454141     0.13700
C1399       C  0.64314446  0.90126441  0.69636861    -0.23900
H1400       H  0.66950870  0.95061938  0.67088865     0.15000
H1401       H  0.62925275  0.98921533  0.75129387     0.15100
C1402       C  0.65327666  0.03927317  0.72422478    -0.23900
H1403       H  0.65441923  0.89752801  0.67803605     0.05300
H1404       H  0.61704655  0.89414563  0.69466357     0.08500
H1405       H  0.65586023  0.88493229  0.70950640     0.08500
H1406       H  0.64152290  0.05410402  0.70963935     0.08500
H1407       H  0.67873693  0.04793319  0.72679648     0.08500
H1408       H  0.64005223  0.04376571  0.74170166     0.02100
C1409       C  0.48863574  0.07214498  0.25406231    -0.20500
C1410       C  0.47372110  0.10121867  0.26154314    -0.07100
C1411       C  0.46867459  0.10704174  0.28671244     0.13800
C1412       C  0.48019044  0.08429061  0.30397799    -0.20600
C1413       C  0.49688319  0.05588512  0.29668214    -0.07100
C1414       C  0.50001425  0.04917639  0.27124048     0.13700
C1415       C  0.51485293  0.01789496  0.26186111    -0.23900
H1416       H  0.49204895  0.06778139  0.23461061     0.15000
H1417       H  0.47738855  0.08958342  0.32333213     0.15100
C1418       C  0.45268227  0.13804495  0.29539645    -0.23900
H1419       H  0.51210449  0.01556242  0.24166694     0.05300
H1420       H  0.50250591  0.99635449  0.27054010     0.08500
H1421       H  0.54138964  0.01748945  0.26581371     0.08500
H1422       H  0.42742340  0.13927351  0.28814138     0.08500
H1423       H  0.46688893  0.15976989  0.28882802     0.08500
H1424       H  0.45131782  0.13910727  0.31573786     0.05300
C1425       C  0.77439789  0.21510064  0.22092770    -0.20500
C1426       C  0.77332044  0.24950822  0.21874449    -0.07100
C1427       C  0.75477721  0.26362820  0.19955575     0.13800
C1428       C  0.73705619  0.24302469  0.18382544    -0.20600
C1429       C  0.73676056  0.20881256  0.18691101    -0.07100
C1430       C  0.75621305  0.19459142  0.20533014     0.13700
C1431       C  0.75767355  0.15789479  0.20864775    -0.23900
H1432       H  0.78860833  0.20423777  0.23555882     0.15000
H1433       H  0.72176298  0.25388620  0.16983753     0.15100
C1434       C  0.75141978  0.30021940  0.19632470    -0.23900
H1435       H  0.77496075  0.15091827  0.22339971     0.05300
H1436       H  0.76595927  0.14640628  0.19130639     0.08500
H1437       H  0.73324222  0.14789966  0.21368191     0.08500
H1438       H  0.77513963  0.31117876  0.19058531     0.08500
H1439       H  0.74279268  0.31147357  0.21365614     0.08500
H1440       H  0.73349420  0.30644059  0.18181478     0.05300
C1441       C  0.89416045  0.57864432  0.24049876    -0.20500
C1442       C  0.92249930  0.59812742  0.24240227    -0.07100
C1443       C  0.94619268  0.59002140  0.26024079     0.13800
C1444       C  0.94055694  0.56299494  0.27577133    -0.20600
C1445       C  0.91187566  0.54382079  0.27423643    -0.07100
C1446       C  0.88837058  0.55174743  0.25608574     0.13700
C1447       C  0.85651894  0.53313596  0.25325591    -0.23900
H1448       H  0.87614748  0.58461960  0.22668859     0.15000
H1449       H  0.95868729  0.55705757  0.28949643     0.15100
C1450       C  0.97687488  0.61026125  0.26386780    -0.23900
H1451       H  0.84083126  0.54401669  0.23881832     0.05300
H1452       H  0.84250579  0.53365896  0.27072901     0.08500
H1453       H  0.86129556  0.50741955  0.24779111     0.08500
H1454       H  0.97047567  0.63628475  0.26719890     0.08500
H1455       H  0.99289746  0.60849405  0.24747817     0.08500
H1456       H  0.99121480  0.60158930  0.27986127     0.05300
C1457       C  0.62997362  0.72651175  0.21986908    -0.20500
C1458       C  0.65325322  0.73852204  0.20313248    -0.07100
C1459       C  0.66138630  0.77234849  0.20283578     0.13800
C1460       C  0.64728528  0.79301576  0.22024727    -0.20600
C1461       C  0.62562065  0.78068942  0.23812447    -0.07100
C1462       C  0.61571453  0.74727938  0.23728297     0.13700
C1463       C  0.58984235  0.73343716  0.25429209    -0.23900
H1464       H  0.62375230  0.70057038  0.21981320     0.15000
H1465       H  0.65476805  0.81860565  0.22076969     0.15100
C1466       C  0.68632354  0.78649992  0.18516221    -0.23900
H1467       H  0.58309300  0.70781505  0.24938453     0.05300
H1468       H  0.56747035  0.74850468  0.25308083     0.08500
H1469       H  0.59861598  0.73295582  0.27346527     0.08500
H1470       H  0.67769615  0.78342612  0.16603002     0.08500
H1471       H  0.71003741  0.77392183  0.18749311     0.08500
H1472       H  0.69054012  0.81315618  0.18819270     0.05300
loop_ 
_geom_bond_atom_site_label_1 
_geom_bond_atom_site_label_2 
_geom_bond_distance 
_geom_bond_site_symmetry_2 
_ccdc_geom_bond_type 
N1            N2   1.322       .  A
N1            C5   1.342       .  A
N1           Cu9   2.065       .  S
N2            C3   1.346       .  A
N2           Cu8   2.071       .  S
C3            C4   1.383       .  A
C3            H6   1.082       .  S
C4            C5   1.381       .  A
C4           C57   1.466       .  S
C5            H7   1.082       .  S
Cu8          N11   2.072       .  S
Cu9          N19   2.064       .  S
Cu10         N12   2.064       .  S
Cu10         N18   2.064       .  S
N11          N12   1.323       .  A
N11          C15   1.343       .  A
N12          C13   1.344       .  A
C13          C14   1.380       .  A
C13          H16   1.082       .  S
C14          C15   1.382       .  A
C14         C651   1.464       .  S
C15          H17   1.082       .  S
N18          N19   1.321       .  A
N18          C22   1.344       .  A
N19          C20   1.342       .  A
C20          C21   1.382       .  A
C20          H23   1.082       .  S
C21          C22   1.383       .  A
C21        C1458   1.471       .  S
C22          H24   1.082       .  S
N25          N26   1.324       .  A
N25          C29   1.346       .  A
N25         Cu33   2.071       .  S
N26          C27   1.342       .  A
N26         Cu32   2.074       .  S
C27          C28   1.381       .  A
C27          H30   1.082       .  S
C28          C29   1.382       .  A
C28         C119   1.466   1_565  S
C29          H31   1.082       .  S
Cu32         N35   2.072       .  S
Cu33         N43   2.071       .  S
Cu34         N36   2.057       .  S
Cu34         N42   2.056       .  S
N35          N36   1.320       .  A
N35          C39   1.348       .  A
N36          C37   1.339       .  A
C37          C38   1.380       .  A
C37          H40   1.082       .  S
C38          C39   1.385       .  A
C38         C357   1.465       .  S
C39          H41   1.082       .  S
N42          N43   1.320       .  A
N42          C46   1.340       .  A
N43          C44   1.345       .  A
C44          C45   1.389       .  A
C44          H47   1.082       .  S
C45          C46   1.383       .  A
C45        C1461   1.478       .  S
C46          H48   1.080       .  S
C49          N50   1.362       .  A
C49          N54   1.358       .  A
C49        C1445   1.487       .  S
N50          C51   1.355       .  A
C51          N52   1.353       .  A
C51         C338   1.457       .  S
N52          C53   1.354       .  A
C53          N54   1.354       .  A
C53          C64   1.459       .  S
C55          N56   1.357       .  A
C55          N60   1.354       .  A
C55        C1442   1.481       .  S
N56          C57   1.356       .  A
C57          N58   1.358       .  A
N58          C59   1.359       .  A
C59          N60   1.355       .  A
C59         C410   1.461       .  S
N61          N62   1.323       .  A
N61          C65   1.346       .  A
N61         Cu69   2.075       .  S
N62          C63   1.340       .  A
N62         Cu68   2.058       .  S
C63          C64   1.376       .  A
C63          H66   1.082       .  S
C64          C65   1.382       .  A
C65          H67   1.082       .  S
Cu68         N71   2.057       .  S
Cu69         N79   2.075       .  S
Cu70         N72   2.061       .  S
Cu70         N78   2.061       .  S
N71          N72   1.320       .  A
N71          C75   1.345       .  A
N72          C73   1.341       .  A
C73          C74   1.382       .  A
C73          H76   1.082       .  S
C74          C75   1.382       .  A
C74         C855   1.463       .  S
C75          H77   1.082       .  S
N78          N79   1.321       .  A
N78          C82   1.341       .  A
N79          C80   1.345       .  A
C80          C81   1.389       .  A
C80          H83   1.079       .  S
C81          C82   1.382       .  A
C81        C1426   1.484       .  S
C82          H84   1.082       .  S
N85          N86   1.322       .  A
N85          C89   1.341       .  A
N85         Cu93   2.065       .  S
N86          C87   1.348       .  A
N86         Cu92   2.076       .  S
C87          C88   1.384       .  A
C87          H90   1.082       .  S
C88          C89   1.381       .  A
C88         C111   1.468       .  S
C89          H91   1.082       .  S
Cu92         N95   2.077       .  S
Cu93        N103   2.063       .  S
Cu94         N96   2.066       .  S
Cu94        N102   2.065       .  S
N95          N96   1.323       .  A
N95          C99   1.346       .  A
N96          C97   1.343       .  A
C97          C98   1.380       .  A
C97         H100   1.082       .  S
C98          C99   1.383       .  A
C98         C371   1.467       .  S
C99         H101   1.082       .  S
N102        N103   1.319       .  A
N102        C106   1.343       .  A
N103        C104   1.343       .  A
C104        C105   1.385       .  A
C104        H107   1.082       .  S
C105        C106   1.386       .  A
C105       C1429   1.478       .  S
C106        H108   1.082       .  S
C109        N110   1.353       .  A
C109        N114   1.357       .  A
C109       C1410   1.472       .  S
N110        C111   1.355       .  A
C111        N112   1.359       .  A
N112        C113   1.361       .  A
C113        N114   1.361       .  A
C113        C638   1.466       .  S
C115        N116   1.362       .  A
C115        N120   1.361       .  A
C115       C1413   1.489       .  S
N116        C117   1.358       .  A
C117        N118   1.353       .  A
C117        C926   1.463       .  S
N118        C119   1.354       .  A
C119        N120   1.357       .  A
N121        N122   1.321       .  A
N121        C125   1.340       .  A
N121       Cu129   2.055       .  S
N122        C123   1.349       .  A
N122       Cu128   2.082   1_545  S
C123        C124   1.387       .  A
C123        H126   1.082       .  S
C124        C125   1.379       .  A
C124        C237   1.468       .  S
C125        H127   1.082       .  S
Cu128       N131   2.083       .  S
Cu129       N139   2.054       .  S
Cu130       N132   2.073   1_545  S
Cu130       N138   2.071       .  S
N131        N132   1.325       .  A
N131        C135   1.347       .  A
N132        C133   1.343       .  A
C133        C134   1.380       .  A
C133        H136   1.082       .  S
C134        C135   1.383       .  A
C134        C351   1.467       .  S
C135        H137   1.082       .  S
N138        N139   1.318       .  A
N138        C142   1.344       .  A
N139        C140   1.341       .  A
C140        C141   1.385       .  A
C140        H143   1.081       .  S
C141        C142   1.391       .  A
C141       C1394   1.484   1_545  S
C142        H144   1.082   1_545  S
N145        N146   1.324       .  A
N145        C149   1.348       .  A
N145       Cu153   2.079       .  S
N146        C147   1.342       .  A
N146       Cu152   2.068       .  S
C147        C148   1.379       .  A
C147        H150   1.082       .  S
C148        C149   1.383       .  A
C148        C177   1.464       .  S
C149        H151   1.082       .  S
Cu152       N155   2.065       .  S
Cu153       N163   2.080       .  S
Cu154       N156   2.062       .  S
Cu154       N162   2.063       .  S
N155        N156   1.320       .  A
N155        C159   1.345       .  A
N156        C157   1.342       .  A
C157        C158   1.380       .  A
C157        H160   1.082       .  S
C158        C159   1.382       .  A
C158        C657   1.462       .  S
C159        H161   1.082       .  S
N162        N163   1.320       .  A
N162        C166   1.341       .  A
N163        C164   1.346       .  A
C164        C165   1.392       .  A
C164        H167   1.077       .  S
C165        C166   1.386       .  A
C165       C1397   1.492       .  S
C166        H168   1.082       .  S
C169        N170   1.356       .  A
C169        N174   1.359       .  A
C169       C1378   1.496       .  S
N170        C171   1.358       .  A
C171        N172   1.360       .  A
C171        C208   1.471       .  S
N172        C173   1.360       .  A
C173        N174   1.358       .  A
C173        C290   1.470       .  S
C175        N176   1.363       .  A
C175        N180   1.361       .  A
C175       C1381   1.494       .  S
N176        C177   1.357       .  A
C177        N178   1.355       .  A
N178        C179   1.354       .  A
C179        N180   1.357       .  A
C179        C458   1.463       .  S
N181        N182   1.322       .  A
N181        C185   1.344       .  A
N181       Cu189   2.065       .  S
N182        C183   1.342       .  A
N182       Cu188   2.065       .  S
C183        C184   1.380       .  A
C183        H186   1.082       .  S
C184        C185   1.381       .  A
C184        C231   1.462       .  S
C185        H187   1.082       .  S
Cu188       N191   2.063       .  S
Cu189       N199   2.066       .  S
Cu190       N192   2.069       .  S
Cu190       N198   2.069       .  S
N191        N192   1.322       .  A
N191        C195   1.345       .  A
N192        C193   1.343       .  A
C193        C194   1.381       .  A
C193        H196   1.082       .  S
C194        C195   1.381       .  A
C194        C365   1.462       .  S
C195        H197   1.082       .  S
N198        N199   1.321       .  A
N198        C202   1.342       .  A
N199        C200   1.344       .  A
C200        C201   1.386       .  A
C200        H203   1.080       .  S
C201        C202   1.385       .  A
C201       C1362   1.482       .  S
C202        H204   1.082       .  S
N205        N206   1.322       .  A
N205        C209   1.342       .  A
N205       Cu213   2.067       .  S
N206        C207   1.348       .  A
N206       Cu212   2.080       .  S
C207        C208   1.386       .  A
C207        H210   1.082       .  S
C208        C209   1.382       .  A
C209        H211   1.082       .  S
Cu212       N215   2.081       .  S
Cu213       N223   2.066       .  S
Cu214       N216   2.064       .  S
Cu214       N222   2.065       .  S
N215        N216   1.323       .  A
N215        C219   1.345       .  A
N216        C217   1.344       .  A
C217        C218   1.380       .  A
C217        H220   1.082       .  S
C218        C219   1.383       .  A
C218        C861   1.464       .  S
C219        H221   1.082       .  S
N222        N223   1.320       .  A
N222        C226   1.345       .  A
N223        C224   1.342       .  A
C224        C225   1.384       .  A
C224        H227   1.082       .  S
C225        C226   1.386       .  A
C225       C1365   1.478       .  S
C226        H228   1.082       .  S
C229        N230   1.357       .  A
C229        N234   1.363       .  A
C229       C1346   1.494       .  S
N230        C231   1.354       .  A
C231        N232   1.353       .  A
N232        C233   1.355       .  A
C233        N234   1.359       .  A
C233        C698   1.462       .  S
C235        N236   1.358       .  A
C235        N240   1.356       .  A
C235       C1349   1.484       .  S
N236        C237   1.356       .  A
C237        N238   1.355       .  A
N238        C239   1.359       .  A
C239        N240   1.358       .  A
C239        C878   1.460   1_655  S
C241        N242   1.362       .  A
C241        N246   1.364       .  A
C241       C1333   1.491       .  S
N242        C243   1.359       .  A
C243        N244   1.353       .  A
C243        C830   1.468       .  S
N244        C245   1.355       .  A
C245        N246   1.362       .  A
C245        C280   1.471       .  S
C247        N248   1.368       .  A
C247        N252   1.368       .  A
C247       C1330   1.508       .  S
N248        C249   1.356       .  A
C249        N250   1.349       .  A
C249        C554   1.465       .  S
N250        C251   1.351       .  A
C251        N252   1.362       .  A
C251        C328   1.473       .  S
N253        N254   1.324       .  A
N253        C257   1.348       .  A
N253       Cu261   2.078       .  S
N254        C255   1.340       .  A
N254       Cu260   2.067       .  S
C255        C256   1.378       .  A
C255        H258   1.082       .  S
C256        C257   1.383       .  A
C256        C359   1.464       .  S
C257        H259   1.082       .  S
Cu260       N263   2.065       .  S
Cu261       N271   2.078       .  S
Cu262       N264   2.060       .  S
Cu262       N270   2.062       .  S
N263        N264   1.318       .  A
N263        C267   1.345       .  A
N264        C265   1.341       .  A
C265        C266   1.383       .  A
C265        H268   1.083       .  S
C266        C267   1.385       .  A
C266        C535   1.460       .  S
C267        H269   1.082       .  S
N270        N271   1.322       .  A
N270        C274   1.340       .  A
N271        C272   1.348       .  A
C272        C273   1.386       .  A
C272        H275   1.081       .  S
C273        C274   1.379       .  A
C273       C1314   1.476       .  S
C274        H276   1.082       .  S
N277        N278   1.322       .  A
N277        C281   1.347       .  A
N277       Cu285   2.068       .  S
N278        C279   1.343       .  A
N278       Cu284   2.082       .  S
C279        C280   1.385       .  A
C279        H282   1.082       .  S
C280        C281   1.383       .  A
C281        H283   1.082       .  S
Cu284       N287   2.081       .  S
Cu285       N295   2.068       .  S
Cu286       N288   2.068       .  S
Cu286       N294   2.064       .  S
N287        N288   1.323       .  A
N287        C291   1.348       .  A
N288        C289   1.344       .  A
C289        C290   1.381       .  A
C289        H292   1.082       .  S
C290        C291   1.384       .  A
C291        H293   1.082       .  S
N294        N295   1.320       .  A
N294        C298   1.343       .  A
N295        C296   1.342       .  A
C296        C297   1.387       .  A
C296        H299   1.081       .  S
C297        C298   1.387       .  A
C297       C1317   1.484       .  S
C298        H300   1.082       .  S
N301        N302   1.322       .  A
N301        C305   1.341       .  A
N301       Cu309   2.068       .  S
N302        C303   1.349       .  A
N302       Cu308   2.080       .  S
C303        C304   1.386       .  A
C303        H306   1.082       .  S
C304        C305   1.382       .  A
C304        C353   1.471       .  S
C305        H307   1.082       .  S
Cu308       N311   2.080       .  S
Cu309       N319   2.067       .  S
Cu310       N312   2.072       .  S
Cu310       N318   2.070       .  S
N311        N312   1.324       .  A
N311        C315   1.345       .  A
N312        C313   1.345       .  A
C313        C314   1.381       .  A
C313        H316   1.082       .  S
C314        C315   1.383       .  A
C314        C779   1.468       .  S
C315        H317   1.082       .  S
N318        N319   1.321       .  A
N318        C322   1.344       .  A
N319        C320   1.344       .  A
C320        C321   1.383       .  A
C320        H323   1.082       .  S
C321        C322   1.385       .  A
C321       C1298   1.478       .  S
C322        H324   1.081       .  S
N325        N326   1.324       .  A
N325        C329   1.353       .  A
N325       Cu333   2.089   1_455  S
N326        C327   1.340       .  A
N326       Cu332   2.075   1_455  S
C327        C328   1.381       .  A
C327        H330   1.082       .  S
C328        C329   1.387       .  A
C329        H331   1.082       .  S
Cu332       N335   2.073       .  S
Cu333       N343   2.090       .  S
Cu334       N336   2.053       .  S
Cu334       N342   2.054       .  S
N335        N336   1.320       .  A
N335        C339   1.345       .  A
N336        C337   1.342       .  A
C337        C338   1.378       .  A
C337        H340   1.082       .  S
C338        C339   1.383       .  A
C339        H341   1.082       .  S
N342        N343   1.322       .  A
N342        C346   1.341       .  A
N343        C344   1.346       .  A
C344        C345   1.390       .  A
C344        H347   1.082       .  S
C345        C346   1.381       .  A
C345       C1301   1.481       .  S
C346        H348   1.080       .  S
C349        N350   1.356       .  A
C349        N354   1.355       .  A
C349       C1282   1.480       .  S
N350        C351   1.359       .  A
C351        N352   1.362       .  A
N352        C353   1.360       .  A
C353        N354   1.355       .  A
C355        N356   1.365       .  A
C355        N360   1.360       .  A
C355       C1285   1.497       .  S
N356        C357   1.359       .  A
C357        N358   1.353       .  A
N358        C359   1.351       .  A
C359        N360   1.354       .  A
C361        N362   1.365       .  A
C361        N366   1.359       .  A
C361       C1266   1.501       .  S
N362        C363   1.359       .  A
C363        N364   1.354       .  A
C363        C376   1.469       .  S
N364        C365   1.353       .  A
C365        N366   1.356       .  A
C367        N368   1.354       .  A
C367        N372   1.358       .  A
C367       C1269   1.481       .  S
N368        C369   1.356       .  A
C369        N370   1.358       .  A
C369        C424   1.470       .  S
N370        C371   1.361       .  A
C371        N372   1.361       .  A
N373        N374   1.325       .  A
N373        C377   1.348       .  A
N373       Cu381   2.083       .  S
N374        C375   1.342       .  A
N374       Cu380   2.078       .  S
C375        C376   1.381       .  A
C375        H378   1.082       .  S
C376        C377   1.383       .  A
C377        H379   1.082       .  S
Cu380       N383   2.075       .  S
Cu381       N391   2.081   1_556  S
Cu382       N384   2.051       .  S
Cu382       N390   2.051       .  S
N383        N384   1.319       .  A
N383        C387   1.348       .  A
N384        C385   1.338       .  A
C385        C386   1.379       .  A
C385        H388   1.083       .  S
C386        C387   1.386       .  A
C386        C773   1.459       .  S
C387        H389   1.082       .  S
N390        N391   1.320   1_556  A
N390        C394   1.339   1_556  A
N391        C392   1.349       .  A
C392        C393   1.389       .  A
C392        H395   1.082       .  S
C393        C394   1.380       .  A
C393       C1250   1.476       .  S
C394        H396   1.082   1_554  S
N397        N398   1.322       .  A
N397        C401   1.348       .  A
N397       Cu405   2.077       .  S
N398        C399   1.339       .  A
N398       Cu404   2.055       .  S
C399        C400   1.379       .  A
C399        H402   1.082       .  S
C400        C401   1.386       .  A
C400        C479   1.466       .  S
C401        H403   1.082       .  S
Cu404       N407   2.054       .  S
Cu405       N415   2.078       .  S
Cu406       N408   2.058       .  S
Cu406       N414   2.059       .  S
N407        N408   1.321       .  A
N407        C411   1.343   1_455  A
N408        C409   1.341       .  A
C409        C410   1.381   1_455  A
C409        H412   1.082       .  S
C410        C411   1.380       .  A
C411        H413   1.082       .  S
N414        N415   1.322       .  A
N414        C418   1.344       .  A
N415        C416   1.343       .  A
C416        C417   1.383       .  A
C416        H419   1.082       .  S
C417        C418   1.380       .  A
C417       C1253   1.474       .  S
C418        H420   1.082       .  S
N421        N422   1.323       .  A
N421        C425   1.340       .  A
N421       Cu429   2.057       .  S
N422        C423   1.351       .  A
N422       Cu428   2.095       .  S
C423        C424   1.388       .  A
C423        H426   1.082       .  S
C424        C425   1.378       .  A
C425        H427   1.082       .  S
Cu428       N431   2.096       .  S
Cu429       N439   2.056       .  S
Cu430       N432   2.063       .  S
Cu430       N438   2.063       .  S
N431        N432   1.324       .  A
N431        C435   1.348       .  A
N432        C433   1.343       .  A
C433        C434   1.378       .  A
C433        H436   1.082       .  S
C434        C435   1.386       .  A
C434        C533   1.468       .  S
C435        H437   1.082       .  S
N438        N439   1.319       .  A
N438        C442   1.344       .  A
N439        C440   1.342       .  A
C440        C441   1.384       .  A
C440        H443   1.082       .  S
C441        C442   1.385       .  A
C441       C1234   1.478       .  S
C442        H444   1.082       .  S
N445        N446   1.322       .  A
N445        C449   1.347       .  A
N445       Cu453   2.074       .  S
N446        C447   1.343       .  A
N446       Cu452   2.075       .  S
C447        C448   1.382       .  A
C447        H450   1.082       .  S
C448        C449   1.383       .  A
C448        C471   1.469       .  S
C449        H451   1.082       .  S
Cu452       N455   2.075       .  S
Cu453       N463   2.075       .  S
Cu454       N456   2.066       .  S
Cu454       N462   2.068       .  S
N455        N456   1.322       .  A
N455        C459   1.344       .  A
N456        C457   1.345       .  A
C457        C458   1.380       .  A
C457        H460   1.082       .  S
C458        C459   1.382       .  A
C459        H461   1.082       .  S
N462        N463   1.322       .  A
N462        C466   1.343       .  A
N463        C464   1.345   1_556  A
C464        C465   1.384   1_554  A
C464        H467   1.082       .  S
C465        C466   1.383       .  A
C465       C1237   1.478   1_556  S
C466        H468   1.081       .  S
C469        N470   1.364       .  A
C469        N474   1.358       .  A
C469       C1218   1.495       .  S
N470        C471   1.360       .  A
C471        N472   1.357       .  A
N472        C473   1.354       .  A
C473        N474   1.353       .  A
C473        C734   1.461       .  S
C475        N476   1.363       .  A
C475        N480   1.361       .  A
C475       C1221   1.489       .  S
N476        C477   1.356       .  A
C477        N478   1.352       .  A
C477        C494   1.463       .  S
N478        C479   1.355       .  A
C479        N480   1.358       .  A
N481        N482   1.321       .  A
N481        C485   1.337       .  A
N481       Cu489   2.050       .  S
N482        C483   1.351       .  A
N482       Cu488   2.081       .  S
C483        C484   1.388   1_455  A
C483        H486   1.082   1_455  S
C484        C485   1.377   1_655  A
C484        C599   1.465       .  S
C485        H487   1.082       .  S
Cu488       N491   2.083       .  S
Cu489       N499   2.050       .  S
Cu490       N492   2.069       .  S
Cu490       N498   2.068       .  S
N491        N492   1.325       .  A
N491        C495   1.344       .  A
N492        C493   1.345       .  A
C493        C494   1.380       .  A
C493        H496   1.082       .  S
C494        C495   1.382       .  A
C495        H497   1.082       .  S
N498        N499   1.319       .  A
N498        C502   1.344       .  A
N499        C500   1.341       .  A
C500        C501   1.381       .  A
C500        H503   1.082       .  S
C501        C502   1.385       .  A
C501       C1202   1.473       .  S
C502        H504   1.082       .  S
N505        N506   1.322       .  A
N505        C509   1.346       .  A
N505       Cu513   2.062       .  S
N506        C507   1.343       .  A
N506       Cu512   2.081       .  S
C507        C508   1.385       .  A
C507        H510   1.082       .  S
C508        C509   1.381       .  A
C508        C537   1.469       .  S
C509        H511   1.082       .  S
Cu512       N515   2.080       .  S
Cu513       N523   2.063       .  S
Cu514       N516   2.060       .  S
Cu514       N522   2.062       .  S
N515        N516   1.322       .  A
N515        C519   1.346       .  A
N516        C517   1.343       .  A
C517        C518   1.378       .  A
C517        H520   1.082       .  S
C518        C519   1.383       .  A
C518        C843   1.463       .  S
C519        H521   1.082       .  S
N522        N523   1.321       .  A
N522        C526   1.343       .  A
N523        C524   1.342       .  A
C524        C525   1.384       .  A
C524        H527   1.080       .  S
C525        C526   1.383       .  A
C525       C1205   1.478       .  S
C526        H528   1.082       .  S
C529        N530   1.360       .  A
C529        N534   1.362       .  A
C529       C1189   1.497       .  S
N530        C531   1.359       .  A
C531        N532   1.358       .  A
C531        C568   1.471       .  S
N532        C533   1.356       .  A
C533        N534   1.358       .  A
C535        N536   1.352       .  A
C535        N540   1.356       .  A
N536        C537   1.351       .  A
C537        N538   1.360       .  A
N538        C539   1.365       .  A
C539        N540   1.362       .  A
C539       C1186   1.489       .  S
N541        N542   1.325       .  A
N541        C545   1.344       .  A
N541       Cu549   2.061       .  S
N542        C543   1.343       .  A
N542       Cu548   2.087       .  S
C543        C544   1.384       .  A
C543        H546   1.082       .  S
C544        C545   1.378       .  A
C544        C591   1.464       .  S
C545        H547   1.082       .  S
Cu548       N551   2.086       .  S
Cu549       N559   2.062       .  S
Cu550       N552   2.054       .  S
Cu550       N558   2.054       .  S
N551        N552   1.319       .  A
N551        C555   1.350       .  A
N552        C553   1.339       .  A
C553        C554   1.380       .  A
C553        H556   1.083       .  S
C554        C555   1.389       .  A
C555        H557   1.082       .  S
N558        N559   1.318       .  A
N558        C562   1.339       .  A
N559        C560   1.344       .  A
C560        C561   1.388       .  A
C560        H563   1.082       .  S
C561        C562   1.382       .  A
C561       C1170   1.472       .  S
C562        H564   1.082       .  S
N565        N566   1.322       .  A
N565        C569   1.347       .  A
N565       Cu573   2.079       .  S
N566        C567   1.343       .  A
N566       Cu572   2.069       .  S
C567        C568   1.382       .  A
C567        H570   1.082       .  S
C568        C569   1.386       .  A
C569        H571   1.082       .  S
Cu572       N575   2.069       .  S
Cu573       N583   2.078       .  S
Cu574       N576   2.066       .  S
Cu574       N582   2.063       .  S
N575        N576   1.321       .  A
N575        C579   1.344       .  A
N576        C577   1.344       .  A
C577        C578   1.381       .  A
C577        H580   1.082       .  S
C578        C579   1.383       .  A
C578        C711   1.466       .  S
C579        H581   1.082       .  S
N582        N583   1.322       .  A
N582        C586   1.343       .  A
N583        C584   1.344       .  A
C584        C585   1.384       .  A
C584        H587   1.083       .  S
C585        C586   1.381       .  A
C585       C1173   1.473       .  S
C586        H588   1.082       .  S
C589        N590   1.361   1_655  A
C589        N594   1.363       .  A
C589       C1154   1.487       .  S
N590        C591   1.355       .  A
C591        N592   1.349       .  A
N592        C593   1.353   1_455  A
C593        N594   1.358       .  A
C593        C902   1.461       .  S
C595        N596   1.359       .  A
C595        N600   1.354       .  A
C595       C1157   1.491       .  S
N596        C597   1.363       .  A
C597        N598   1.361   1_545  A
C597        C674   1.464       .  S
N598        C599   1.354       .  A
C599        N600   1.351   1_565  A
N601        N602   1.323       .  A
N601        C605   1.344   1_545  A
N601       Cu609   2.075       .  S
N602        C603   1.344   1_545  A
N602       Cu608   2.068       .  S
C603        C604   1.380       .  A
C603        H606   1.082       .  S
C604        C605   1.382       .  A
C604        C659   1.466       .  S
C605        H607   1.082       .  S
Cu608       N611   2.066       .  S
Cu609       N619   2.075   1_556  S
Cu610       N612   2.057       .  S
Cu610       N618   2.058       .  S
N611        N612   1.320       .  A
N611        C615   1.345       .  A
N612        C613   1.340       .  A
C613        C614   1.381       .  A
C613        H616   1.082       .  S
C614        C615   1.383       .  A
C614        C791   1.458       .  S
C615        H617   1.082       .  S
N618        N619   1.321   1_556  A
N618        C622   1.341   1_556  A
N619        C620   1.347       .  A
C620        C621   1.385       .  A
C620        H623   1.081       .  S
C621        C622   1.379       .  A
C621       C1138   1.474       .  S
C622        H624   1.082       .  S
N625        N626   1.323       .  A
N625        C629   1.345       .  A
N625       Cu633   2.067       .  S
N626        C627   1.345       .  A
N626       Cu632   2.083       .  S
C627        C628   1.384       .  A
C627        H630   1.082       .  S
C628        C629   1.381       .  A
C628        C713   1.469       .  S
C629        H631   1.082       .  S
Cu632       N635   2.082       .  S
Cu633       N643   2.066       .  S
Cu634       N636   2.063       .  S
Cu634       N642   2.065       .  S
N635        N636   1.322       .  A
N635        C639   1.348       .  A
N636        C637   1.342       .  A
C637        C638   1.379       .  A
C637        H640   1.082       .  S
C638        C639   1.386       .  A
C639        H641   1.082       .  S
N642        N643   1.320       .  A
N642        C646   1.343       .  A
N643        C644   1.343       .  A
C644        C645   1.386       .  A
C644        H647   1.082       .  S
C645        C646   1.386       .  A
C645       C1141   1.482       .  S
C646        H648   1.082       .  S
C649        N650   1.358       .  A
C649        N654   1.352       .  A
C649       C1122   1.472       .  S
N650        C651   1.362       .  A
C651        N652   1.360       .  A
N652        C653   1.356       .  A
C653        N654   1.351       .  A
C653        C664   1.464       .  S
C655        N656   1.358       .  A
C655        N660   1.360       .  A
C655       C1125   1.494       .  S
N656        C657   1.357       .  A
C657        N658   1.356       .  A
N658        C659   1.355       .  A
C659        N660   1.355       .  A
N661        N662   1.321       .  A
N661        C665   1.340       .  A
N661       Cu669   2.062   1_565  S
N662        C663   1.347       .  A
N662       Cu668   2.069       .  S
C663        C664   1.384       .  A
C663        H666   1.082       .  S
C664        C665   1.380       .  A
C665        H667   1.082       .  S
Cu668       N671   2.070       .  S
Cu669       N679   2.061       .  S
Cu670       N672   2.063       .  S
Cu670       N678   2.062       .  S
N671        N672   1.323   1_565  A
N671        C675   1.343       .  A
N672        C673   1.344       .  A
C673        C674   1.380       .  A
C673        H676   1.082       .  S
C674        C675   1.381   1_545  A
C675        H677   1.082       .  S
N678        N679   1.320       .  A
N678        C682   1.344       .  A
N679        C680   1.342       .  A
C680        C681   1.382       .  A
C680        H683   1.082       .  S
C681        C682   1.382       .  A
C681       C1106   1.470       .  S
C682        H684   1.082       .  S
N685        N686   1.324       .  A
N685        C689   1.348       .  A
N685       Cu693   2.079   1_455  S
N686        C687   1.341       .  A
N686       Cu692   2.071   1_455  S
C687        C688   1.379       .  A
C687        H690   1.082       .  S
C688        C689   1.383       .  A
C688        C719   1.466       .  S
C689        H691   1.082   1_556  S
Cu692       N695   2.069       .  S
Cu693       N703   2.079   1_556  S
Cu694       N696   2.060       .  S
Cu694       N702   2.060       .  S
N695        N696   1.320       .  A
N695        C699   1.347       .  A
N696        C697   1.341       .  A
C697        C698   1.380       .  A
C697        H700   1.082       .  S
C698        C699   1.383       .  A
C699        H701   1.082       .  S
N702        N703   1.322   1_556  A
N702        C706   1.341   1_556  A
N703        C704   1.347       .  A
C704        C705   1.386       .  A
C704        H707   1.082       .  S
C705        C706   1.380       .  A
C705       C1109   1.474       .  S
C706        H708   1.081   1_554  S
C709        N710   1.359       .  A
C709        N714   1.360       .  A
C709       C1090   1.483       .  S
N710        C711   1.356       .  A
C711        N712   1.356       .  A
N712        C713   1.357       .  A
C713        N714   1.360       .  A
C715        N716   1.356       .  A
C715        N720   1.352       .  A
C715        C806   1.464       .  S
N716        C717   1.362       .  A
C717        N718   1.365       .  A
C717       C1093   1.503   1_556  S
N718        C719   1.359       .  A
C719        N720   1.355       .  A
N721        N722   1.322       .  A
N721        C725   1.345       .  A
N721       Cu729   2.062   1_545  S
N722        C723   1.343       .  A
N722       Cu728   2.073   1_545  S
C723        C724   1.383       .  A
C723        H726   1.082       .  S
C724        C725   1.381       .  A
C724        C789   1.466       .  S
C725        H727   1.082       .  S
Cu728       N731   2.073       .  S
Cu729       N739   2.062       .  S
Cu730       N732   2.059       .  S
Cu730       N738   2.060       .  S
N731        N732   1.321       .  A
N731        C735   1.345       .  A
N732        C733   1.344       .  A
C733        C734   1.379       .  A
C733        H736   1.082       .  S
C734        C735   1.382       .  A
C735        H737   1.082       .  S
N738        N739   1.322       .  A
N738        C742   1.341       .  A
N739        C740   1.345       .  A
C740        C741   1.382       .  A
C740        H743   1.081       .  S
C741        C742   1.379       .  A
C741       C1074   1.471       .  S
C742        H744   1.082       .  S
N745        N746   1.323       .  A
N745        C749   1.344       .  A
N745       Cu753   2.067       .  S
N746        C747   1.346       .  A
N746       Cu752   2.082       .  S
C747        C748   1.385       .  A
C747        H750   1.082       .  S
C748        C749   1.382       .  A
C748        C777   1.470   1_455  S
C749        H751   1.082       .  S
Cu752       N755   2.082       .  S
Cu753       N763   2.065       .  S
Cu754       N756   2.062       .  S
Cu754       N762   2.062       .  S
N755        N756   1.322       .  A
N755        C759   1.346       .  A
N756        C757   1.343       .  A
C757        C758   1.380       .  A
C757        H760   1.082       .  S
C758        C759   1.384       .  A
C758        C849   1.466       .  S
C759        H761   1.082       .  S
N762        N763   1.321       .  A
N762        C766   1.343       .  A
N763        C764   1.343       .  A
C764        C765   1.383       .  A
C764        H767   1.082       .  S
C765        C766   1.380       .  A
C765       C1077   1.472       .  S
C766        H768   1.082       .  S
C769        N770   1.369       .  A
C769        N774   1.363       .  A
C769       C1058   1.487       .  S
N770        C771   1.363       .  A
C771        N772   1.350       .  A
C771        C796   1.472   1_655  S
N772        C773   1.348       .  A
C773        N774   1.354       .  A
C775        N776   1.359   1_655  A
C775        N780   1.361       .  A
C775       C1061   1.494       .  S
N776        C777   1.359   1_455  A
C777        N778   1.357       .  A
N778        C779   1.357       .  A
C779        N780   1.358       .  A
C781        N782   1.357       .  A
C781        N786   1.355       .  A
C781       C1045   1.485       .  S
N782        C783   1.358       .  A
C783        N784   1.358       .  A
C783        C820   1.470       .  S
N784        C785   1.360       .  A
C785        N786   1.357       .  A
C785        C950   1.462       .  S
C787        N788   1.359       .  A
C787        N792   1.359       .  A
C787       C1042   1.467       .  S
N788        C789   1.357       .  A
C789        N790   1.353       .  A
N790        C791   1.354       .  A
C791        N792   1.356       .  A
N793        N794   1.323       .  A
N793        C797   1.351       .  A
N793       Cu801   2.072       .  S
N794        C795   1.339       .  A
N794       Cu800   2.081       .  S
C795        C796   1.384       .  A
C795        H798   1.082       .  S
C796        C797   1.384       .  A
C797        H799   1.082       .  S
Cu800       N803   2.080       .  S
Cu801       N811   2.073       .  S
Cu802       N804   2.063       .  S
Cu802       N810   2.065       .  S
N803        N804   1.321       .  A
N803        C807   1.346       .  A
N804        C805   1.345       .  A
C805        C806   1.381       .  A
C805        H808   1.082       .  S
C806        C807   1.384       .  A
C807        H809   1.082       .  S
N810        N811   1.323       .  A
N810        C814   1.342       .  A
N811        C812   1.345       .  A
C812        C813   1.382       .  A
C812        H815   1.082       .  S
C813        C814   1.380       .  A
C813       C1026   1.472       .  S
C814        H816   1.081       .  S
N817        N818   1.322       .  A
N817        C821   1.340       .  A
N817       Cu825   2.054       .  S
N818        C819   1.350       .  A
N818       Cu824   2.093       .  S
C819        C820   1.388       .  A
C819        H822   1.082       .  S
C820        C821   1.378       .  A
C821        H823   1.082       .  S
Cu824       N827   2.094       .  S
Cu825       N835   2.053       .  S
Cu826       N828   2.062       .  S
Cu826       N834   2.063       .  S
N827        N828   1.324       .  A
N827        C831   1.346       .  A
N828        C829   1.344       .  A
C829        C830   1.379       .  A
C829        H832   1.082       .  S
C830        C831   1.387       .  A
C831        H833   1.082       .  S
N834        N835   1.320       .  A
N834        C838   1.345       .  A
N835        C836   1.341       .  A
C836        C837   1.379       .  A
C836        H839   1.082       .  S
C837        C838   1.383       .  A
C837       C1029   1.470       .  S
C838        H840   1.082       .  S
C841        N842   1.360       .  A
C841        N846   1.362       .  A
C841       C1013   1.490       .  S
N842        C843   1.353       .  A
C843        N844   1.353       .  A
N844        C845   1.357       .  A
C845        N846   1.359       .  A
C845        C916   1.465       .  S
C847        N848   1.358       .  A
C847        N852   1.360       .  A
C847       C1010   1.487       .  S
N848        C849   1.355       .  A
C849        N850   1.355       .  A
N850        C851   1.358       .  A
C851        N852   1.358       .  A
C851        C868   1.467       .  S
C853        N854   1.360       .  A
C853        N858   1.362       .  A
C853        C994   1.489       .  S
N854        C855   1.358       .  A
C855        N856   1.353       .  A
N856        C857   1.353       .  A
C857        N858   1.357       .  A
C857        C892   1.466       .  S
C859        N860   1.358       .  A
C859        N864   1.354       .  A
C859        C997   1.470       .  S
N860        C861   1.361       .  A
C861        N862   1.360       .  A
N862        C863   1.357       .  A
C863        N864   1.354       .  A
C863        C940   1.468       .  S
N865        N866   1.321       .  A
N865        C869   1.347   1_545  A
N865       Cu873   2.079       .  S
N866        C867   1.340   1_545  A
N866       Cu872   2.054       .  S
C867        C868   1.379       .  A
C867        H870   1.082       .  S
C868        C869   1.386       .  A
C869        H871   1.082   1_565  S
Cu872       N875   2.054       .  S
Cu873       N883   2.079       .  S
Cu874       N876   2.064       .  S
Cu874       N882   2.065       .  S
N875        N876   1.321       .  A
N875        C879   1.341       .  A
N876        C877   1.344       .  A
C877        C878   1.382       .  A
C877        H880   1.082       .  S
C878        C879   1.379       .  A
C879        H881   1.082       .  S
N882        N883   1.322       .  A
N882        C886   1.343       .  A
N883        C884   1.344       .  A
C884        C885   1.385       .  A
C884        H887   1.082       .  S
C885        C886   1.383       .  A
C885        C978   1.476       .  S
C886        H888   1.082       .  S
N889        N890   1.325       .  A
N889        C893   1.345       .  A
N889       Cu897   2.074       .  S
N890        C891   1.342       .  A
N890       Cu896   2.075       .  S
C891        C892   1.382       .  A
C891        H894   1.082       .  S
C892        C893   1.381       .  A
C893        H895   1.082       .  S
Cu896       N899   2.073       .  S
Cu897       N907   2.073       .  S
Cu898       N900   2.046       .  S
Cu898       N906   2.046       .  S
N899        N900   1.320       .  A
N899        C903   1.349       .  A
N900        C901   1.336       .  A
C901        C902   1.377       .  A
C901        H904   1.083       .  S
C902        C903   1.386       .  A
C903        H905   1.082       .  S
N906        N907   1.318       .  A
N906        C910   1.338       .  A
N907        C908   1.347       .  A
C908        C909   1.391       .  A
C908        H911   1.079       .  S
C909        C910   1.382       .  A
C909        C981   1.484       .  S
C910        H912   1.082   1_655  S
N913        N914   1.323       .  A
N913        C917   1.349       .  A
N913       Cu921   2.081   1_565  S
N914        C915   1.341       .  A
N914       Cu920   2.063       .  S
C915        C916   1.379       .  A
C915        H918   1.082       .  S
C916        C917   1.384       .  A
C917        H919   1.082       .  S
Cu920       N923   2.061   1_565  S
Cu921       N931   2.082       .  S
Cu922       N924   2.071       .  S
Cu922       N930   2.072       .  S
N923        N924   1.321       .  A
N923        C927   1.345       .  A
N924        C925   1.343       .  A
C925        C926   1.382       .  A
C925        H928   1.082       .  S
C926        C927   1.381       .  A
C927        H929   1.082       .  S
N930        N931   1.323       .  A
N930        C934   1.343       .  A
N931        C932   1.347       .  A
C932        C933   1.383       .  A
C932        H935   1.082       .  S
C933        C934   1.380       .  A
C933        C962   1.472       .  S
C934        H936   1.082       .  S
N937        N938   1.322       .  A
N937        C941   1.341       .  A
N937       Cu945   2.065       .  S
N938        C939   1.347       .  A
N938       Cu944   2.074       .  S
C939        C940   1.384       .  A
C939        H942   1.082       .  S
C940        C941   1.381       .  A
C941        H943   1.082       .  S
Cu944       N947   2.075       .  S
Cu945       N955   2.064       .  S
Cu946       N948   2.064       .  S
Cu946       N954   2.065       .  S
N947        N948   1.324       .  A
N947        C951   1.345       .  A
N948        C949   1.341       .  A
C949        C950   1.379       .  A
C949        H952   1.082       .  S
C950        C951   1.382       .  A
C951        H953   1.082       .  S
N954        N955   1.320       .  A
N954        C958   1.346       .  A
N955        C956   1.341       .  A
C956        C957   1.384       .  A
C956        H959   1.082       .  S
C957        C958   1.385       .  A
C957        C965   1.479       .  S
C958        H960   1.082       .  S
C961        C962   1.403       .  A
C961        C966   1.408       .  A
C961        H968   1.084       .  S
C962        C963   1.410       .  A
C963        C964   1.399       .  A
C963        C970   1.508       .  S
C964        C965   1.404       .  A
C964        H969   1.084       .  S
C965        C966   1.413       .  A
C966        C967   1.506       .  S
C967        H971   1.111       .  S
C967        H972   1.109       .  S
C967        H973   1.110       .  S
C970        H974   1.110       .  S
C970        H975   1.110       .  S
C970        H976   1.111       .  S
C977        C978   1.403       .  A
C977        C982   1.403   1_455  A
C977        H984   1.084       .  S
C978        C979   1.408       .  A
C979        C980   1.402       .  A
C979        C986   1.506       .  S
C980        C981   1.408   1_455  A
C980        H985   1.084       .  S
C981        C982   1.417       .  A
C982        C983   1.507       .  S
C983        H987   1.111       .  S
C983        H988   1.110       .  S
C983        H989   1.108       .  S
C986        H990   1.109       .  S
C986        H991   1.110       .  S
C986        H992   1.111       .  S
C993        C994   1.408       .  A
C993        C998   1.401       .  A
C993       H1000   1.084       .  S
C994        C995   1.422       .  A
C995        C996   1.405       .  A
C995       C1002   1.508       .  S
C996        C997   1.399       .  A
C996       H1001   1.084       .  S
C997        C998   1.409       .  A
C998        C999   1.508       .  S
C999       H1003   1.111       .  S
C999       H1004   1.109       .  S
C999       H1005   1.110       .  S
C1002      H1006   1.110       .  S
C1002      H1007   1.110       .  S
C1002      H1008   1.111       .  S
C1009      C1010   1.407       .  A
C1009      C1014   1.407       .  A
C1009      H1016   1.084       .  S
C1010      C1011   1.417       .  A
C1011      C1012   1.400       .  A
C1011      C1018   1.510       .  S
C1012      C1013   1.406       .  A
C1012      H1017   1.084       .  S
C1013      C1014   1.418       .  A
C1014      C1015   1.508       .  S
C1015      H1019   1.111       .  S
C1015      H1020   1.110       .  S
C1015      H1021   1.109       .  S
C1018      H1022   1.110       .  S
C1018      H1023   1.109       .  S
C1018      H1024   1.111       .  S
C1025      C1026   1.400       .  A
C1025      C1030   1.401       .  A
C1025      H1032   1.084       .  S
C1026      C1027   1.414       .  A
C1027      C1028   1.402       .  A
C1027      C1034   1.507       .  S
C1028      C1029   1.399       .  A
C1028      H1033   1.084       .  S
C1029      C1030   1.415       .  A
C1030      C1031   1.508       .  S
C1031      H1035   1.111       .  S
C1031      H1036   1.109       .  S
C1031      H1037   1.110       .  S
C1034      H1038   1.110       .  S
C1034      H1039   1.107       .  S
C1034      H1040   1.111       .  S
C1041      C1042   1.399       .  A
C1041      C1046   1.406       .  A
C1041      H1048   1.084       .  S
C1042      C1043   1.408       .  A
C1043      C1044   1.400       .  A
C1043      C1050   1.508       .  S
C1044      C1045   1.406       .  A
C1044      H1049   1.084       .  S
C1045      C1046   1.421       .  A
C1046      C1047   1.508       .  S
C1047      H1051   1.111       .  S
C1047      H1052   1.109       .  S
C1047      H1053   1.111       .  S
C1050      H1054   1.110       .  S
C1050      H1055   1.110       .  S
C1050      H1056   1.111       .  S
C1057      C1058   1.403   1_455  A
C1057      C1062   1.407       .  A
C1057      H1064   1.084       .  S
C1058      C1059   1.416       .  A
C1059      C1060   1.404       .  A
C1059      C1066   1.509       .  S
C1060      C1061   1.406       .  A
C1060      H1065   1.084       .  S
C1061      C1062   1.421   1_655  A
C1062      C1063   1.508       .  S
C1063      H1067   1.111       .  S
C1063      H1068   1.109       .  S
C1063      H1069   1.110       .  S
C1066      H1070   1.109       .  S
C1066      H1071   1.110       .  S
C1066      H1072   1.111       .  S
C1073      C1074   1.398       .  A
C1073      C1078   1.398       .  A
C1073      H1080   1.085       .  S
C1074      C1075   1.415       .  A
C1075      C1076   1.405       .  A
C1075      C1082   1.507       .  S
C1076      C1077   1.401       .  A
C1076      H1081   1.084       .  S
C1077      C1078   1.416       .  A
C1078      C1079   1.509       .  S
C1079      H1083   1.111       .  S
C1079      H1084   1.108       .  S
C1079      H1085   1.110       .  S
C1082      H1086   1.110       .  S
C1082      H1087   1.108       .  S
C1082      H1088   1.111       .  S
C1089      C1090   1.401       .  A
C1089      C1094   1.404       .  A
C1089      H1096   1.084       .  S
C1090      C1091   1.412       .  A
C1091      C1092   1.406       .  A
C1091      C1098   1.508       .  S
C1092      C1093   1.412       .  A
C1092      H1097   1.083       .  S
C1093      C1094   1.425       .  A
C1094      C1095   1.509   1_554  S
C1095      H1099   1.111       .  S
C1095      H1100   1.110       .  S
C1095      H1101   1.110       .  S
C1098      H1102   1.110       .  S
C1098      H1103   1.110       .  S
C1098      H1104   1.111       .  S
C1105      C1106   1.399       .  A
C1105      C1110   1.404       .  A
C1105      H1112   1.084       .  S
C1106      C1107   1.414       .  A
C1107      C1108   1.400       .  A
C1107      C1114   1.509       .  S
C1108      C1109   1.401       .  A
C1108      H1113   1.084       .  S
C1109      C1110   1.415       .  A
C1110      C1111   1.507       .  S
C1111      H1115   1.111       .  S
C1111      H1116   1.108       .  S
C1111      H1117   1.110       .  S
C1114      H1118   1.110       .  S
C1114      H1119   1.110       .  S
C1114      H1120   1.111       .  S
C1121      C1122   1.399       .  A
C1121      C1126   1.407   1_554  A
C1121      H1128   1.084       .  S
C1122      C1123   1.411       .  A
C1123      C1124   1.398       .  A
C1123      C1130   1.510       .  S
C1124      C1125   1.408   1_554  A
C1124      H1129   1.083       .  S
C1125      C1126   1.425       .  A
C1126      C1127   1.508       .  S
C1127      H1131   1.111       .  S
C1127      H1132   1.110       .  S
C1127      H1133   1.110       .  S
C1130      H1134   1.108       .  S
C1130      H1135   1.110       .  S
C1130      H1136   1.111       .  S
C1137      C1138   1.403       .  A
C1137      C1142   1.402       .  A
C1137      H1144   1.085       .  S
C1138      C1139   1.410       .  A
C1139      C1140   1.402       .  A
C1139      C1146   1.507       .  S
C1140      C1141   1.407       .  A
C1140      H1145   1.083       .  S
C1141      C1142   1.415       .  A
C1142      C1143   1.507       .  S
C1143      H1147   1.111       .  S
C1143      H1148   1.110       .  S
C1143      H1149   1.108       .  S
C1146      H1150   1.111       .  S
C1146      H1151   1.109       .  S
C1146      H1152   1.111       .  S
C1153      C1154   1.408       .  A
C1153      C1158   1.409       .  A
C1153      H1160   1.084       .  S
C1154      C1155   1.417       .  A
C1155      C1156   1.397       .  A
C1155      C1162   1.511   1_655  S
C1156      C1157   1.406       .  A
C1156      H1161   1.084   1_655  S
C1157      C1158   1.417       .  A
C1158      C1159   1.507       .  S
C1159      H1163   1.111       .  S
C1159      H1164   1.110       .  S
C1159      H1165   1.110       .  S
C1162      H1166   1.111       .  S
C1162      H1167   1.110       .  S
C1162      H1168   1.111       .  S
C1169      C1170   1.400       .  A
C1169      C1174   1.397       .  A
C1169      H1176   1.084       .  S
C1170      C1171   1.413       .  A
C1171      C1172   1.405       .  A
C1171      C1178   1.507       .  S
C1172      C1173   1.402       .  A
C1172      H1177   1.084       .  S
C1173      C1174   1.416       .  A
C1174      C1175   1.510       .  S
C1175      H1179   1.111       .  S
C1175      H1180   1.110       .  S
C1175      H1181   1.108       .  S
C1178      H1182   1.108       .  S
C1178      H1183   1.110       .  S
C1178      H1184   1.111       .  S
C1185      C1186   1.405       .  A
C1185      C1190   1.406       .  A
C1185      H1192   1.084       .  S
C1186      C1187   1.416       .  A
C1187      C1188   1.405       .  A
C1187      C1194   1.509       .  S
C1188      C1189   1.408       .  A
C1188      H1193   1.083       .  S
C1189      C1190   1.421       .  A
C1190      C1191   1.508       .  S
C1191      H1195   1.111       .  S
C1191      H1196   1.109       .  S
C1191      H1197   1.110       .  S
C1194      H1198   1.109       .  S
C1194      H1199   1.111       .  S
C1194      H1200   1.111       .  S
C1201      C1202   1.402       .  A
C1201      C1206   1.401       .  A
C1201      H1208   1.084       .  S
C1202      C1203   1.410       .  A
C1203      C1204   1.402       .  A
C1203      C1210   1.507       .  S
C1204      C1205   1.406       .  A
C1204      H1209   1.084       .  S
C1205      C1206   1.414       .  A
C1206      C1207   1.508       .  S
C1207      H1211   1.111       .  S
C1207      H1212   1.110       .  S
C1207      H1213   1.107       .  S
C1210      H1214   1.109       .  S
C1210      H1215   1.110       .  S
C1210      H1216   1.111       .  S
C1217      C1218   1.408   1_554  A
C1217      C1222   1.406       .  A
C1217      H1224   1.083       .  S
C1218      C1219   1.423   1_556  A
C1219      C1220   1.402       .  A
C1219      C1226   1.510   1_554  S
C1220      C1221   1.403       .  A
C1220      H1225   1.084       .  S
C1221      C1222   1.417       .  A
C1222      C1223   1.508       .  S
C1223      H1227   1.111       .  S
C1223      H1228   1.109       .  S
C1223      H1229   1.110       .  S
C1226      H1230   1.110       .  S
C1226      H1231   1.110       .  S
C1226      H1232   1.111   1_556  S
C1233      C1234   1.404       .  A
C1233      C1238   1.401       .  A
C1233      H1240   1.084       .  S
C1234      C1235   1.411       .  A
C1235      C1236   1.405       .  A
C1235      C1242   1.507       .  S
C1236      C1237   1.405       .  A
C1236      H1241   1.084       .  S
C1237      C1238   1.413       .  A
C1238      C1239   1.508       .  S
C1239      H1243   1.111       .  S
C1239      H1244   1.107   1_554  S
C1239      H1245   1.110       .  S
C1242      H1246   1.110       .  S
C1242      H1247   1.109       .  S
C1242      H1248   1.111       .  S
C1249      C1250   1.401       .  A
C1249      C1254   1.403       .  A
C1249      H1256   1.084       .  S
C1250      C1251   1.414   1_655  A
C1251      C1252   1.403       .  A
C1251      C1258   1.508       .  S
C1252      C1253   1.399       .  A
C1252      H1257   1.084       .  S
C1253      C1254   1.416   1_455  A
C1254      C1255   1.508       .  S
C1255      H1259   1.111       .  S
C1255      H1260   1.110       .  S
C1255      H1261   1.109       .  S
C1258      H1262   1.107       .  S
C1258      H1263   1.110       .  S
C1258      H1264   1.111       .  S
C1265      C1266   1.409   1_554  A
C1265      C1270   1.402       .  A
C1265      H1272   1.083       .  S
C1266      C1267   1.427       .  A
C1267      C1268   1.407   1_556  A
C1267      C1274   1.509       .  S
C1268      C1269   1.400       .  A
C1268      H1273   1.084       .  S
C1269      C1270   1.412       .  A
C1270      C1271   1.509       .  S
C1271      H1275   1.111       .  S
C1271      H1276   1.110       .  S
C1271      H1277   1.109       .  S
C1274      H1278   1.110       .  S
C1274      H1279   1.110       .  S
C1274      H1280   1.111       .  S
C1281      C1282   1.400       .  A
C1281      C1286   1.401       .  A
C1281      H1288   1.084       .  S
C1282      C1283   1.412       .  A
C1283      C1284   1.405       .  A
C1283      C1290   1.507       .  S
C1284      C1285   1.410       .  A
C1284      H1289   1.083       .  S
C1285      C1286   1.425       .  A
C1286      C1287   1.510       .  S
C1287      H1291   1.111       .  S
C1287      H1292   1.110       .  S
C1287      H1293   1.110       .  S
C1290      H1294   1.110       .  S
C1290      H1295   1.110       .  S
C1290      H1296   1.111       .  S
C1297      C1298   1.402       .  A
C1297      C1302   1.406       .  A
C1297      H1304   1.084       .  S
C1298      C1299   1.415       .  A
C1299      C1300   1.400       .  A
C1299      C1306   1.508       .  S
C1300      C1301   1.401       .  A
C1300      H1305   1.084       .  S
C1301      C1302   1.417       .  A
C1302      C1303   1.508       .  S
C1303      H1307   1.111       .  S
C1303      H1308   1.110       .  S
C1303      H1309   1.106       .  S
C1306      H1310   1.108       .  S
C1306      H1311   1.110       .  S
C1306      H1312   1.111       .  S
C1313      C1314   1.404       .  A
C1313      C1318   1.404       .  A
C1313      H1320   1.084       .  S
C1314      C1315   1.411       .  A
C1315      C1316   1.401       .  A
C1315      C1322   1.508       .  S
C1316      C1317   1.408       .  A
C1316      H1321   1.083       .  S
C1317      C1318   1.413       .  A
C1318      C1319   1.508       .  S
C1319      H1323   1.111       .  S
C1319      H1324   1.110       .  S
C1319      H1325   1.107       .  S
C1322      H1326   1.109       .  S
C1322      H1327   1.110       .  S
C1322      H1328   1.111       .  S
C1329      C1330   1.411       .  A
C1329      C1334   1.405       .  A
C1329      H1336   1.083       .  S
C1330      C1331   1.426       .  A
C1331      C1332   1.412       .  A
C1331      C1338   1.508       .  S
C1332      C1333   1.404       .  A
C1332      H1337   1.084       .  S
C1333      C1334   1.414       .  A
C1334      C1335   1.509       .  S
C1335      H1339   1.111       .  S
C1335      H1340   1.109       .  S
C1335      H1341   1.111       .  S
C1338      H1342   1.110       .  S
C1338      H1343   1.110       .  S
C1338      H1344   1.111       .  S
C1345      C1346   1.408       .  A
C1345      C1350   1.405       .  A
C1345      H1352   1.083       .  S
C1346      C1347   1.424       .  A
C1347      C1348   1.400       .  A
C1347      C1354   1.511       .  S
C1348      C1349   1.402       .  A
C1348      H1353   1.084       .  S
C1349      C1350   1.415       .  A
C1350      C1351   1.508       .  S
C1351      H1355   1.111       .  S
C1351      H1356   1.109       .  S
C1351      H1357   1.110       .  S
C1354      H1358   1.110       .  S
C1354      H1359   1.110       .  S
C1354      H1360   1.111       .  S
C1361      C1362   1.406       .  A
C1361      C1366   1.403       .  A
C1361      H1368   1.084       .  S
C1362      C1363   1.417       .  A
C1363      C1364   1.403       .  A
C1363      C1370   1.508       .  S
C1364      C1365   1.403       .  A
C1364      H1369   1.084       .  S
C1365      C1366   1.410       .  A
C1366      C1367   1.507       .  S
C1367      H1371   1.111       .  S
C1367      H1372   1.108       .  S
C1367      H1373   1.110       .  S
C1370      H1374   1.110       .  S
C1370      H1375   1.108       .  S
C1370      H1376   1.111       .  S
C1377      C1378   1.407       .  A
C1377      C1382   1.405       .  A
C1377      H1384   1.083       .  S
C1378      C1379   1.421       .  A
C1379      C1380   1.404       .  A
C1379      C1386   1.509       .  S
C1380      C1381   1.406       .  A
C1380      H1385   1.084       .  S
C1381      C1382   1.419       .  A
C1382      C1383   1.509       .  S
C1383      H1387   1.111       .  S
C1383      H1388   1.110       .  S
C1383      H1389   1.110       .  S
C1386      H1390   1.110       .  S
C1386      H1391   1.110       .  S
C1386      H1392   1.111       .  S
C1393      C1394   1.404       .  A
C1393      C1398   1.403       .  A
C1393      H1400   1.083       .  S
C1394      C1395   1.412   1_565  A
C1395      C1396   1.404   1_545  A
C1395      C1402   1.509       .  S
C1396      C1397   1.409       .  A
C1396      H1401   1.083       .  S
C1397      C1398   1.418       .  A
C1398      C1399   1.506       .  S
C1399      H1403   1.111       .  S
C1399      H1404   1.108       .  S
C1399      H1405   1.110       .  S
C1402      H1406   1.110       .  S
C1402      H1407   1.106       .  S
C1402      H1408   1.111       .  S
C1409      C1410   1.400       .  A
C1409      C1414   1.404       .  A
C1409      H1416   1.084       .  S
C1410      C1411   1.408       .  A
C1411      C1412   1.404       .  A
C1411      C1418   1.507       .  S
C1412      C1413   1.409       .  A
C1412      H1417   1.083       .  S
C1413      C1414   1.420       .  A
C1414      C1415   1.509       .  S
C1415      H1419   1.111       .  S
C1415      H1420   1.110   1_545  S
C1415      H1421   1.109       .  S
C1418      H1422   1.110       .  S
C1418      H1423   1.111       .  S
C1418      H1424   1.111       .  S
C1425      C1426   1.407       .  A
C1425      C1430   1.404       .  A
C1425      H1432   1.084       .  S
C1426      C1427   1.418       .  A
C1427      C1428   1.401       .  A
C1427      C1434   1.508       .  S
C1428      C1429   1.403       .  A
C1428      H1433   1.084       .  S
C1429      C1430   1.410       .  A
C1430      C1431   1.507       .  S
C1431      H1435   1.111       .  S
C1431      H1436   1.110       .  S
C1431      H1437   1.109       .  S
C1434      H1438   1.108       .  S
C1434      H1439   1.110       .  S
C1434      H1440   1.111       .  S
C1441      C1442   1.403       .  A
C1441      C1446   1.400       .  A
C1441      H1448   1.084       .  S
C1442      C1443   1.416       .  A
C1443      C1444   1.402       .  A
C1443      C1450   1.509       .  S
C1444      C1445   1.406       .  A
C1444      H1449   1.084       .  S
C1445      C1446   1.421       .  A
C1446      C1447   1.510       .  S
C1447      H1451   1.111       .  S
C1447      H1452   1.110       .  S
C1447      H1453   1.110       .  S
C1450      H1454   1.110       .  S
C1450      H1455   1.109       .  S
C1450      H1456   1.111       .  S
C1457      C1458   1.399       .  A
C1457      C1462   1.404       .  A
C1457      H1464   1.084       .  S
C1458      C1459   1.414       .  A
C1459      C1460   1.399       .  A
C1459      C1466   1.509       .  S
C1460      C1461   1.402       .  A
C1460      H1465   1.084       .  S
C1461      C1462   1.417       .  A
C1462      C1463   1.508       .  S
C1463      H1467   1.111       .  S
C1463      H1468   1.110       .  S
C1463      H1469   1.106       .  S
C1466      H1470   1.109       .  S
C1466      H1471   1.110       .  S
C1466      H1472   1.111       .  S
