geometry optimzed in LAMMPS
_audit_creation_date              2020-11-30 
_audit_creation_method            'lammps2cif' 
_symmetry_space_group_name_H-M    'P1' 
_symmetry_Int_Tables_number       1 
_symmetry_cell_setting            triclinic 
loop_ 
_symmetry_equiv_pos_as_xyz 
  x,y,z 
_cell_length_a                    46.94302259 
_cell_length_b                    46.97873034681665 
_cell_length_c                    46.928120924387215 
_cell_angle_alpha                 89.91787853545932 
_cell_angle_beta                  90.28155265932128 
_cell_angle_gamma                 89.76919217651192 
loop_ 
_atom_site_label 
_atom_site_type_symbol 
_atom_site_fract_x 
_atom_site_fract_y 
_atom_site_fract_z 
_atom_site_charge 
N1          N  0.56014935  0.49526651  0.02365163    -0.05800
N2          N  0.57711713  0.50499051  0.04384081    -0.57900
N3          N  0.55033531  0.46766351  0.95867328    -0.05400
N4          N  0.56505398  0.45771264  0.93682517    -0.60000
N5          N  0.55055496  0.49569535  0.95852302    -0.05000
N6          N  0.56510397  0.50532611  0.93655663    -0.57900
N7          N  0.55925744  0.46728346  0.02439394    -0.04700
N8          N  0.57563059  0.45742169  0.04535103    -0.60400
C9          C  0.58668506  0.48131358  0.05718467     0.96400
C10         C  0.57389904  0.48150369  0.92308646     0.96200
N11         N  0.47314570  0.42285008  0.96997512    -0.06000
N12         N  0.45952290  0.40669450  0.95144952    -0.58500
N13         N  0.51054989  0.42223008  0.03088532    -0.04100
N14         N  0.52370548  0.40760010  0.05099812    -0.59700
N15         N  0.48285878  0.42269977  0.03541142    -0.06000
N16         N  0.47671095  0.40796270  0.05874725    -0.58700
N17         N  0.50083439  0.42159738  0.96557357    -0.03700
N18         N  0.50648707  0.40437967  0.94393995    -0.59800
Mn19       Mn  0.53086786  0.44390866  0.99462200     1.18400
C20         C  0.48041515  0.39542705  0.93523571     0.98500
C21         C  0.50256805  0.39879020  0.06819866     0.99200
N22         N  0.50532066  0.54539417  0.96542067    -0.06000
N23         N  0.51202069  0.56234645  0.94391364    -0.62300
N24         N  0.48801653  0.54501410  0.03547306    -0.04800
N25         N  0.48251168  0.55999873  0.05866764    -0.63000
N26         N  0.51558141  0.54415531  0.03070731    -0.05500
N27         N  0.52944401  0.55850810  0.05050604    -0.62600
N28         N  0.47780887  0.54668773  0.97039164    -0.04400
N29         N  0.46523825  0.56454468  0.95255286    -0.63300
Mn30       Mn  0.53347941  0.52061515  0.99426628     1.10700
C31         C  0.48668250  0.57394393  0.93596484     0.99700
C32         C  0.50863189  0.56819601  0.06781211     0.99800
N33         N  0.43663973  0.47224197  0.04171451    -0.05500
N34         N  0.42179856  0.46394121  0.06423784    -0.60900
N35         N  0.43017959  0.50094074  0.97631846    -0.04800
N36         N  0.41429011  0.51256343  0.95621478    -0.57600
N37         N  0.42809257  0.47299597  0.97570151    -0.06100
N38         N  0.41035469  0.46512984  0.95503192    -0.60500
N39         N  0.43919138  0.50012151  0.04163556    -0.05100
N40         N  0.42664845  0.51128765  0.06405841    -0.57600
Mn41       Mn  0.45434006  0.44687580  0.00584865     1.20200
Mn42       Mn  0.45826507  0.52362484  0.00614104     1.10100
Cl43       Cl  0.49422893  0.48366934  0.00011116    -0.85600
C44         C  0.41596129  0.48866497  0.07804790     0.96700
C45         C  0.40201399  0.49021435  0.94308882     0.96500
C46         C  0.23653414  0.50362542  0.20900465     0.80600
N47         N  0.22216562  0.52170958  0.19141832    -0.77700
C48         C  0.19690707  0.53314910  0.19906378     0.83000
N49         N  0.18576536  0.52652339  0.22481191    -0.77700
C50         C  0.19955877  0.50842991  0.24291108     0.83100
N51         N  0.22499457  0.49666082  0.23480532    -0.79400
C52         C  0.74486993  0.48392092  0.20762527     0.80600
N53         N  0.75891099  0.47496706  0.23162551    -0.77700
C54         C  0.78366935  0.48799330  0.23976716     0.83000
N55         N  0.79442459  0.50920238  0.22326841    -0.77700
C56         C  0.78077733  0.51778047  0.19920708     0.83100
N57         N  0.75609322  0.50516037  0.19165303    -0.79400
C58         C  0.18580634  0.50791974  0.77494524     0.80600
N59         N  0.16896554  0.52002981  0.79522008    -0.77700
C60         C  0.17866849  0.52332062  0.82225676     0.83000
N61         N  0.20528802  0.51461468  0.82899921    -0.77700
C62         C  0.22261323  0.50265011  0.80928869     0.83100
N63         N  0.21269599  0.49894230  0.78212408    -0.79400
C64         C  0.78973368  0.50394783  0.76799751     0.80600
N65         N  0.80522633  0.51569655  0.78958086    -0.77700
C66         C  0.79455225  0.51695789  0.81637582     0.83000
N67         N  0.76841956  0.50629299  0.82161710    -0.77700
C68         C  0.75254986  0.49453106  0.80052751     0.83100
N69         N  0.76322181  0.49339131  0.77354259    -0.79400
N70         N  0.98549453  0.60888393  0.97489991    -0.36300
N71         N  0.02978258  0.61238021  0.01903928    -0.56800
N72         N  0.98528483  0.60387489  0.06122783    -0.36300
N73         N  0.94071627  0.60447871  0.01747546    -0.56800
C74         C  0.00834987  0.61622931  0.95914400     0.27300
C75         C  0.96204271  0.61235372  0.95837389     0.27300
C76         C  0.00780962  0.61003526  0.07815198     0.27300
C77         C  0.96162250  0.60616746  0.07735746     0.27300
C78         C  0.04636037  0.60868295  0.99583895     0.35900
C79         C  0.04632154  0.60656983  0.04204320     0.35900
C80         C  0.92533812  0.59820199  0.99388876     0.35900
C81         C  0.92510056  0.59601773  0.04006252     0.35900
C82         C  0.99929947  0.62464908  0.93221959    -0.21500
C83         C  0.97011420  0.62224290  0.93174183    -0.21500
C84         C  0.99832532  0.61654449  0.10533861    -0.21500
C85         C  0.96917931  0.61414512  0.10483030    -0.21500
C86         C  0.07382806  0.60150793  0.00420542    -0.22600
C87         C  0.07370913  0.59976148  0.03338870    -0.22600
C88         C  0.89939483  0.58654136  0.00161104    -0.22600
C89         C  0.89943028  0.58476521  0.03079747    -0.22600
C90         C  0.03713696  0.61208605  0.96723024    -0.17900
C91         C  0.93416936  0.60363281  0.96557992    -0.17900
C92         C  0.93377761  0.59851144  0.06887134    -0.17900
C93         C  0.03677458  0.60710598  0.07063147    -0.17900
H94         H  0.01238167  0.63095168  0.91438969     0.15000
H95         H  0.95656216  0.62633815  0.91346229     0.15000
H96         H  0.01116517  0.62179800  0.12380824     0.15000
H97         H  0.95517995  0.61719756  0.12284512     0.15000
H98         H  0.09206667  0.59752884  0.99076752     0.13200
H99         H  0.09174574  0.59364588  0.04646244     0.13200
H100        H  0.88220139  0.57976491  0.98781800     0.13200
H101        H  0.88250094  0.57591018  0.04354937     0.13200
H102        H  0.98616730  0.59937508  0.99479304     0.26500
H103        H  0.98621193  0.59593930  0.04068044     0.26500
N104        N  0.02570795  0.54614308  0.52021681    -0.05800
N105        N  0.04635628  0.56084311  0.53217815    -0.57900
N106        N  0.96143767  0.54883639  0.48831243    -0.05400
N107        N  0.94046774  0.56470207  0.47774078    -0.60000
N108        N  0.96003010  0.54812270  0.51632832    -0.05000
N109        N  0.93822970  0.56340686  0.52533615    -0.57900
N110        N  0.02757111  0.54724863  0.49225427    -0.04700
N111        N  0.04948049  0.56329896  0.48466962    -0.60400
C112        C  0.06100683  0.57143755  0.50995721     0.96400
C113        C  0.92618272  0.57361946  0.50117197     0.96200
N114        N  0.96191830  0.47398225  0.43925600    -0.06000
N115        N  0.94188762  0.46577258  0.42097151    -0.58500
N116        N  0.02873207  0.49942269  0.44351030    -0.04100
N117        N  0.04955049  0.50861721  0.42700218    -0.59700
N118        N  0.02773732  0.47136532  0.44309567    -0.06000
N119        N  0.04790723  0.46107147  0.42633295    -0.58700
N120        N  0.96312270  0.50198391  0.44014392    -0.03700
N121        N  0.94394976  0.51328525  0.42283898    -0.59800
Mn122      Mn  0.99540750  0.52503715  0.46547034     1.18400
C123        C  0.93078487  0.49065071  0.41102936     0.98500
C124        C  0.06149854  0.48449685  0.41654170     0.99200
N125        N  0.95676921  0.50123330  0.56472092    -0.06000
N126        N  0.93703129  0.51144190  0.58200664    -0.62300
N127        N  0.02194024  0.47122813  0.56762175    -0.04800
N128        N  0.04109474  0.46102985  0.58581031    -0.63000
N129        N  0.02232271  0.49922754  0.56772102    -0.05500
N130        N  0.04171168  0.50864108  0.58586725    -0.62600
N131        N  0.95617396  0.47326672  0.56459004    -0.04400
N132        N  0.93591715  0.46386502  0.58164463    -0.63300
Mn133      Mn  0.99114275  0.52423916  0.54253433     1.10700
C134        C  0.92400693  0.48787307  0.59226361     0.99700
C135        C  0.05341447  0.48462632  0.59692057     0.99800
N136        N  0.02351854  0.42307896  0.49132516    -0.05500
N137        N  0.04269332  0.40394821  0.48324985    -0.60900
N138        N  0.95675126  0.42745453  0.51595248    -0.04800
N139        N  0.93410836  0.41415582  0.52547781    -0.57600
N140        N  0.95769688  0.42642933  0.48790820    -0.06100
N141        N  0.93567021  0.41187967  0.47786062    -0.60500
N142        N  0.02188818  0.42366779  0.51935321    -0.05100
N143        N  0.03963633  0.40500597  0.53076854    -0.57600
Mn144      Mn  0.99277774  0.44794143  0.46469619     1.20200
Mn145      Mn  0.98928149  0.44835950  0.54218729     1.10100
Cl146      Cl  0.99228053  0.48635142  0.50364667    -0.85600
C147        C  0.05271254  0.39307737  0.50818525     0.96700
C148        C  0.92117427  0.40455448  0.50171156     0.96500
C149        C  0.49817891  0.76742335  0.24945452     0.80600
N150        N  0.49424522  0.73934770  0.24326950    -0.77700
C151        C  0.50014645  0.72950428  0.21662746     0.83000
N152        N  0.50903519  0.74791044  0.19622067    -0.77700
C153        C  0.51228334  0.77587762  0.20197345     0.83100
N154        N  0.50698546  0.78552046  0.22863272    -0.79400
C155        C  0.51786694  0.23377550  0.21841503     0.80600
N156        N  0.53236261  0.21467804  0.20207330    -0.77700
C157        C  0.53832039  0.18820215  0.21204682     0.83000
N158        N  0.52945435  0.18071282  0.23829044    -0.77700
C159        C  0.51502599  0.19932066  0.25495551     0.83100
N160        N  0.50924406  0.22604212  0.24507132    -0.79400
C161        C  0.47951021  0.22187313  0.79384917     0.80600
N162        N  0.47503517  0.21591711  0.76565231    -0.77700
C163        C  0.47223708  0.18827643  0.75700897     0.83000
N164        N  0.47467366  0.16700276  0.77647780    -0.77700
C165        C  0.47985551  0.17269019  0.80419742     0.83100
N166        N  0.48215918  0.20008426  0.81279382    -0.79400
C167        C  0.51266568  0.77719689  0.75513197     0.80600
N168        N  0.50707111  0.75030764  0.76455173    -0.77700
C169        C  0.51363097  0.74288930  0.79199754     0.83000
N170        N  0.52551943  0.76253010  0.80971702    -0.77700
C171        C  0.53094049  0.78926122  0.80035186     0.83100
N172        N  0.52444034  0.79632979  0.77324467    -0.79400
N173        N  0.56997712  0.03082840  0.00471803    -0.36300
N174        N  0.56745813  0.98228217  0.96639840    -0.56800
N175        N  0.56875194  0.94495425  0.01615532    -0.36300
N176        N  0.57650613  0.99353396  0.05417522    -0.56800
C177        C  0.57329614  0.04371732  0.97918569     0.27300
C178        C  0.57792912  0.04965857  0.02493734     0.27300
C179        C  0.57239272  0.92591092  0.99488932     0.27300
C180        C  0.57622064  0.93185156  0.04075729     0.27300
C181        C  0.55999933  0.00315795  0.94794615     0.35900
C182        C  0.56036985  0.95743698  0.95384104     0.35900
C183        C  0.57255364  0.01867005  0.06760735     0.35900
C184        C  0.57167823  0.97299196  0.07373884     0.35900
C185        C  0.58351304  0.07109763  0.98325353    -0.21500
C186        C  0.58647479  0.07482072  0.01213985    -0.21500
C187        C  0.58237329  0.90040023  0.00611202    -0.21500
C188        C  0.58487876  0.90418322  0.03505636    -0.21500
C189        C  0.54876969  0.99149899  0.92324091    -0.22600
C190        C  0.54872621  0.96254722  0.92709129    -0.22600
C191        C  0.56562886  0.01404783  0.09592845    -0.22600
C192        C  0.56521350  0.98510530  0.09984147    -0.22600
C193        C  0.56450900  0.03247565  0.95271170    -0.17900
C194        C  0.57537960  0.04568398  0.05460641    -0.17900
C195        C  0.57315534  0.94346296  0.06838821    -0.17900
C196        C  0.56504089  0.93023206  0.96597233    -0.17900
H197        H  0.58780034  0.08702942  0.96718243     0.15000
H198        H  0.59356023  0.09408589  0.02258167     0.15000
H199        H  0.58702333  0.88094878  0.99467255     0.15000
H200        H  0.59184280  0.88821872  0.05024383     0.15000
H201        H  0.54136290  0.00256449  0.90436510     0.13200
H202        H  0.54085788  0.94713286  0.91189926     0.13200
H203        H  0.56089188  0.02977126  0.11206021     0.13200
H204        H  0.56020703  0.97427389  0.11954900     0.13200
H205        H  0.56050972  0.01126807  0.00826943     0.26500
H206        H  0.55955018  0.96496364  0.01431035     0.26500
C207        C  0.19465704  0.74825901  0.52944472     0.80600
N208        N  0.17642463  0.76427655  0.54511639    -0.77700
C209        C  0.18420485  0.78990135  0.55549331     0.83000
N210        N  0.21082397  0.79967503  0.55039858    -0.77700
C211        C  0.22963343  0.78396257  0.53491390     0.83100
N212        N  0.22135803  0.75827637  0.52408202    -0.79400
C213        C  0.74487171  0.19925145  0.50960111     0.80600
N214        N  0.75248875  0.22642843  0.50275228    -0.77700
C215        C  0.78004467  0.23486282  0.50635508     0.83000
N216        N  0.79960039  0.21606027  0.51664702    -0.77700
C217        C  0.79212870  0.18925714  0.52373362     0.83100
N218        N  0.76479117  0.18089906  0.52012845    -0.79400
C219        C  0.19409288  0.22076483  0.51356814     0.80600
N220        N  0.22114591  0.21315511  0.50592110    -0.77700
C221        C  0.23148653  0.18692208  0.51330036     0.83000
N222        N  0.21503189  0.16897372  0.52869617    -0.77700
C223        C  0.18852287  0.17653655  0.53670759     0.83100
N224        N  0.17807270  0.20227222  0.52893863    -0.79400
C225        C  0.75727740  0.78296719  0.49614388     0.80600
N226        N  0.77610818  0.79555055  0.51427199    -0.77700
C227        C  0.80099476  0.78259976  0.52136970     0.83000
N228        N  0.80701274  0.75666793  0.51042208    -0.77700
C229        C  0.78866321  0.74364759  0.49222331     0.83100
N230        N  0.76381774  0.75700153  0.48471260    -0.79400
N231        N  0.93843523  0.98923607  0.61340125    -0.36300
N232        N  0.97721799  0.03669333  0.62176003    -0.56800
N233        N  0.02431330  0.99698572  0.61267558    -0.36300
N234        N  0.98539599  0.94836418  0.60942225    -0.56800
C235        C  0.91997219  0.00996861  0.62113219     0.27300
C236        C  0.92418170  0.96434721  0.61410268     0.27300
C237        C  0.03822636  0.02055806  0.62150947     0.27300
C238        C  0.04261792  0.97483226  0.61524825     0.27300
C239        C  0.95269452  0.05138910  0.61802540     0.35900
C240        C  0.99851947  0.05558540  0.61826522     0.35900
C241        C  0.96376604  0.93173191  0.60012908     0.35900
C242        C  0.00989250  0.93566659  0.60103465     0.35900
C243        C  0.89373635  0.99808450  0.62726501    -0.21500
C244        C  0.89640340  0.96926108  0.62290696    -0.21500
C245        C  0.06563419  0.01328679  0.63000670    -0.21500
C246        C  0.06844910  0.98443803  0.62596064    -0.21500
C247        C  0.95844726  0.07991178  0.61314684    -0.22600
C248        C  0.98750257  0.08254516  0.61313130    -0.22600
C249        C  0.97464003  0.90803646  0.58629217    -0.22600
C250        C  0.00383236  0.91048925  0.58693639    -0.22600
C251        C  0.92514840  0.03944139  0.61903024    -0.17900
C252        C  0.93439770  0.93805557  0.60359618    -0.17900
C253        C  0.03756184  0.94675007  0.60576548    -0.17900
C254        C  0.02775776  0.04878091  0.61949883    -0.17900
H255        H  0.87439534  0.00915221  0.63320480     0.15000
H256        H  0.87949515  0.95379199  0.62489926     0.15000
H257        H  0.08209710  0.02743693  0.63770627     0.15000
H258        H  0.08752567  0.97200876  0.62995712     0.15000
H259        H  0.94335551  0.09705156  0.60966708     0.13200
H260        H  0.99909216  0.10204947  0.60938320     0.13200
H261        H  0.96287961  0.89103517  0.57618467     0.13200
H262        H  0.01877338  0.89576279  0.57740982     0.13200
H263        H  0.95856439  0.99221206  0.60514227     0.26500
H264        H  0.00443793  0.99645458  0.60305084     0.26500
N265        N  0.55827997  0.96235656  0.51514593    -0.05800
N266        N  0.57709819  0.94475036  0.52661190    -0.57900
N267        N  0.54854552  0.02459267  0.48168092    -0.05400
N268        N  0.56294173  0.04531455  0.46950811    -0.60000
N269        N  0.54911011  0.02732277  0.50956965    -0.05000
N270        N  0.56401746  0.05003778  0.51693849    -0.57900
N271        N  0.55817695  0.95980691  0.48725082    -0.04700
N272        N  0.57699556  0.94039969  0.47912668    -0.60400
C273        C  0.58854491  0.93112551  0.50399788     0.96400
C274        C  0.57224087  0.06117900  0.49162594     0.96200
N275        N  0.47307081  0.00953642  0.43606937    -0.06000
N276        N  0.45975188  0.02828691  0.41975380    -0.58500
N277        N  0.51046442  0.94906833  0.44178143    -0.04100
N278        N  0.52372046  0.92867962  0.42782817    -0.59700
N279        N  0.48281464  0.94454477  0.44198487    -0.06000
N280        N  0.47670362  0.92095758  0.42779349    -0.58700
N281        N  0.50069214  0.01406719  0.43589870    -0.03700
N282        N  0.50674953  0.03611945  0.41950792    -0.59800
Mn283      Mn  0.52993888  0.98694928  0.46097696     1.18400
C284        C  0.48095390  0.04476741  0.40967027     0.98500
C285        C  0.50257519  0.91125481  0.41931698     0.99200
N286        N  0.50258937  0.02477765  0.55780746    -0.06000
N287        N  0.51011797  0.04752638  0.57248458    -0.62300
N288        N  0.48362042  0.95577449  0.56362582    -0.04800
N289        N  0.47788434  0.93323404  0.57960921    -0.63000
N290        N  0.51135508  0.95977676  0.56239753    -0.05500
N291        N  0.52497115  0.94013358  0.57722588    -0.62600
N292        N  0.47481150  0.02121718  0.55875051    -0.04400
N293        N  0.46291765  0.04153581  0.57420651    -0.63300
Mn294      Mn  0.53080870  0.99377508  0.53690284     1.10700
C295        C  0.48521171  0.05788341  0.58247295     0.99700
C296        C  0.50401079  0.92378516  0.58786278     0.99800
N297        N  0.43486713  0.94332193  0.48990460    -0.05500
N298        N  0.41850843  0.92190967  0.48197836    -0.60900
N299        N  0.42704326  0.01136197  0.51138320    -0.04800
N300        N  0.40876306  0.03172015  0.51844904    -0.57600
N301        N  0.42695903  0.00767805  0.48355839    -0.06100
N302        N  0.40871077  0.02518386  0.47120050    -0.60500
N303        N  0.43442406  0.94631080  0.51780005    -0.05100
N304        N  0.41772146  0.92686834  0.52934143    -0.57600
Mn305      Mn  0.45395403  0.97587954  0.46227382     1.20200
Mn306      Mn  0.45430752  0.98369466  0.53876679     1.10100
Cl307      Cl  0.49221620  0.98503309  0.49978081    -0.85600
C308        C  0.40815332  0.91164076  0.50674011     0.96700
C309        C  0.39765748  0.04016127  0.49301542     0.96500
C310        C  0.64952720  0.87721177  0.48914766     0.19000
C311        C  0.65517098  0.85534698  0.46944661    -0.19000
C312        C  0.67857756  0.83686082  0.47330678    -0.11300
C313        C  0.69697973  0.84020132  0.49686837     0.21300
C314        C  0.69156208  0.86246891  0.51604552    -0.20700
C315        C  0.66836367  0.88073768  0.51224377    -0.11500
C316        C  0.72291032  0.82242051  0.50214729    -0.15700
C317        C  0.73011357  0.79791856  0.48883062    -0.29500
C318        C  0.62458801  0.89671890  0.48496979    -0.03800
C319        C  0.61185815  0.91003877  0.50699373    -0.40300
H320        H  0.64133254  0.85245176  0.45115214     0.12400
H321        H  0.68232291  0.82040015  0.45767443     0.12100
H322        H  0.70556609  0.86598134  0.53411455     0.11500
H323        H  0.66568901  0.89799068  0.52723986     0.11700
H324        H  0.73710080  0.83025598  0.51870685     0.14500
H325        H  0.71623188  0.78868538  0.47282153     0.13300
H326        H  0.61642330  0.89996328  0.46349953     0.10900
H327        H  0.61881932  0.90560419  0.52862484     0.13000
C328        C  0.88500123  0.87392457  0.58867655     0.19000
C329        C  0.88887841  0.84448849  0.58584247    -0.19000
C330        C  0.86738606  0.82749641  0.57414426    -0.11300
C331        C  0.84137677  0.83968269  0.56502529     0.21300
C332        C  0.83698947  0.86893711  0.56934806    -0.20700
C333        C  0.85847479  0.88588714  0.58104433    -0.11500
C334        C  0.81864445  0.82315019  0.55021451    -0.15700
C335        C  0.82253095  0.79691143  0.53931763    -0.29500
C336        C  0.90883008  0.89158823  0.59978086    -0.03800
C337        C  0.91225192  0.91879009  0.59172543    -0.40300
H338        H  0.90886744  0.83467971  0.59213640     0.12400
H339        H  0.87152717  0.80495724  0.57231104     0.12100
H340        H  0.81703199  0.87887248  0.56312854     0.11500
H341        H  0.85417404  0.90831747  0.58411053     0.11700
H342        H  0.79837984  0.83383814  0.54649388     0.14500
H343        H  0.84264612  0.78585727  0.54197445     0.13300
H344        H  0.92426992  0.88189211  0.61417298     0.10900
H345        H  0.89710858  0.92841028  0.57700124     0.13000
C346        C  0.34183318  0.09984524  0.50311199     0.19000
C347        C  0.34111566  0.12690386  0.51583708    -0.19000
C348        C  0.31682423  0.14429436  0.51337086    -0.11300
C349        C  0.29267110  0.13460817  0.49848686     0.21300
C350        C  0.29372756  0.10791027  0.48519436    -0.20700
C351        C  0.31797501  0.09076257  0.48735740    -0.11500
C352        C  0.26459192  0.14899284  0.50054715    -0.15700
C353        C  0.26024987  0.17704241  0.50496252    -0.29500
C354        C  0.36664157  0.08054519  0.50803216    -0.03800
C355        C  0.37449964  0.06103619  0.48866744    -0.40300
H356        H  0.35912655  0.13430055  0.52825041     0.12400
H357        H  0.31639256  0.16446789  0.52447222     0.12100
H358        H  0.27521619  0.09974721  0.47405059     0.11500
H359        H  0.31733445  0.06978468  0.47788973     0.11700
H360        H  0.24612273  0.13509276  0.49963497     0.14500
H361        H  0.27766069  0.19212095  0.50379839     0.13300
H362        H  0.37878823  0.08261975  0.52768495     0.10900
H363        H  0.36390984  0.06053196  0.46805841     0.13000
C364        C  0.08802313  0.09425508  0.58852048     0.19000
C365        C  0.11335138  0.08714032  0.57461496    -0.19000
C366        C  0.13169048  0.10827293  0.56515829    -0.11300
C367        C  0.12512557  0.13719035  0.56951455     0.21300
C368        C  0.09964275  0.14440312  0.58331027    -0.20700
C369        C  0.08121293  0.12312017  0.59286156    -0.11500
C370        C  0.14342440  0.16003658  0.55792871    -0.15700
C371        C  0.17115479  0.15584240  0.55227797    -0.29500
C372        C  0.06840141  0.07090111  0.59578215    -0.03800
C373        C  0.04845854  0.07237047  0.61613089    -0.40300
H374        H  0.11874239  0.06506670  0.57055952     0.12400
H375        H  0.15039065  0.10170588  0.55349799     0.12100
H376        H  0.09383179  0.16652833  0.58635709     0.11500
H377        H  0.06134134  0.12937057  0.60265635     0.11700
H378        H  0.13361244  0.18051142  0.55320057     0.14500
H379        H  0.18155091  0.13603002  0.55821215     0.13300
H380        H  0.07038409  0.05137069  0.58351234     0.10900
H381        H  0.04566326  0.09159774  0.62860441     0.13000
C382        C  0.63003406  0.11722357  0.50564916     0.19000
C383        C  0.63403011  0.14190029  0.52205931    -0.19000
C384        C  0.65930532  0.15764036  0.51983509    -0.11300
C385        C  0.68121006  0.14847435  0.50161633     0.21300
C386        C  0.67716294  0.12382138  0.48535160    -0.20700
C387        C  0.65187199  0.10847806  0.48716523    -0.11500
C388        C  0.70986665  0.16158784  0.50178577    -0.15700
C389        C  0.71514123  0.18937634  0.50631694    -0.29500
C390        C  0.60428322  0.09929832  0.50955977    -0.03800
C391        C  0.59327231  0.08409714  0.48791941    -0.40300
H392        H  0.61775198  0.14876561  0.53684254     0.12400
H393        H  0.66221270  0.17611462  0.53328415     0.12100
H394        H  0.69396473  0.11599910  0.47164482     0.11500
H395        H  0.65001402  0.08902942  0.47496904     0.11700
H396        H  0.72774560  0.14733262  0.49791174     0.14500
H397        H  0.69778950  0.20463419  0.50788131     0.13300
H398        H  0.59511178  0.09762275  0.53070649     0.10900
H399        H  0.60136931  0.08718846  0.46650212     0.13000
C400        C  0.83043909  0.12543357  0.55812801     0.19000
C401        C  0.82645950  0.10967423  0.58320513    -0.19000
C402        C  0.84773618  0.09109959  0.59308401    -0.11300
C403        C  0.87319064  0.08777892  0.57769091     0.21300
C404        C  0.87668903  0.10297333  0.55221457    -0.20700
C405        C  0.85563492  0.12165348  0.54254787    -0.11500
C406        C  0.89645216  0.06831745  0.58666082    -0.15700
C407        C  0.90030283  0.05818752  0.61321055    -0.29500
C408        C  0.80786241  0.14515972  0.54805332    -0.03800
C409        C  0.81410468  0.16955894  0.53452239    -0.40300
H410        H  0.80698749  0.11197277  0.59529351     0.12400
H411        H  0.84393455  0.07917753  0.61240720     0.12100
H412        H  0.89590477  0.10048102  0.53974676     0.11500
H413        H  0.85894412  0.13277858  0.52262742     0.11700
H414        H  0.91226170  0.06283031  0.57066712     0.14500
H415        H  0.88550313  0.06280934  0.63026246     0.13300
H416        H  0.78582524  0.14005099  0.55277949     0.10900
H417        H  0.83618556  0.17584336  0.53192306     0.13000
C418        C  0.34773660  0.86312146  0.53472483     0.19000
C419        C  0.33316706  0.86252695  0.56074959    -0.19000
C420        C  0.30811100  0.84694020  0.56376162    -0.11300
C421        C  0.29704494  0.83107412  0.54098965     0.21300
C422        C  0.31199794  0.83068694  0.51508262    -0.20700
C423        C  0.33711982  0.84655681  0.51195574    -0.11500
C424        C  0.26873377  0.81748414  0.54476399    -0.15700
C425        C  0.25874236  0.79513334  0.52972958    -0.29500
C426        C  0.37306962  0.88216791  0.53249837    -0.03800
C427        C  0.38588265  0.88943226  0.50795469    -0.40300
H428        H  0.34076036  0.87486265  0.57871604     0.12400
H429        H  0.29702767  0.84767300  0.58394808     0.12100
H430        H  0.30386826  0.81900625  0.49694908     0.11500
H431        H  0.34777211  0.84592230  0.49161694     0.11700
H432        H  0.25551462  0.82629117  0.56156584     0.14500
H433        H  0.27202725  0.78468654  0.51400267     0.13300
H434        H  0.38042594  0.89223405  0.55202471     0.10900
H435        H  0.37888425  0.88053335  0.48784248     0.13000
C436        C  0.09527865  0.88727907  0.60178961     0.19000
C437        C  0.09689400  0.85882538  0.61087771    -0.19000
C438        C  0.12032722  0.84177755  0.60389371    -0.11300
C439        C  0.14272584  0.85284138  0.58749204     0.21300
C440        C  0.14196142  0.88164372  0.57975391    -0.20700
C441        C  0.11854658  0.89871288  0.58671530    -0.11500
C442        C  0.16645543  0.83473981  0.57697171    -0.15700
C443        C  0.16282531  0.80706183  0.57077146    -0.29500
C444        C  0.06906332  0.90400319  0.60859471    -0.03800
C445        C  0.06318317  0.92987701  0.59770012    -0.40300
H446        H  0.07969940  0.84956131  0.62304401     0.12400
H447        H  0.12070180  0.81992036  0.61118954     0.12100
H448        H  0.15916621  0.89078274  0.56749560     0.11500
H449        H  0.11904093  0.92068424  0.58001769     0.11700
H450        H  0.18628216  0.84508064  0.57119578     0.14500
H451        H  0.14240652  0.79704398  0.57462202     0.13300
H452        H  0.05369990  0.89453673  0.62300708     0.10900
H453        H  0.07806169  0.94038178  0.58367533     0.13000
C454        C  0.51233446  0.82521353  0.68856489     0.19000
C455        C  0.53250197  0.84473068  0.67863022    -0.19000
C456        C  0.52585736  0.86369559  0.65676186    -0.11300
C457        C  0.49876136  0.86351454  0.64375817     0.21300
C458        C  0.47855881  0.84371267  0.65341404    -0.20700
C459        C  0.48524803  0.82464340  0.67560262    -0.11500
C460        C  0.49063852  0.88511194  0.62174430    -0.15700
C461        C  0.51024290  0.89922915  0.60646658    -0.29500
C462        C  0.51979284  0.80893274  0.71470498    -0.03800
C463        C  0.50543786  0.78675142  0.72584485    -0.40300
H464        H  0.55334414  0.84606340  0.68857134     0.12400
H465        H  0.54180295  0.87922383  0.65117009     0.12100
H466        H  0.45739142  0.84337572  0.64413796     0.11500
H467        H  0.46891502  0.81038157  0.68319182     0.11700
H468        H  0.46821296  0.89015061  0.61874205     0.14500
H469        H  0.53257146  0.89354277  0.60826858     0.13300
H470        H  0.53824596  0.81673242  0.72638882     0.10900
H471        H  0.48808248  0.77669479  0.71436826     0.13000
C472        C  0.56798642  0.87567071  0.90448403     0.19000
C473        C  0.57540774  0.87779364  0.87565128    -0.19000
C474        C  0.56957570  0.85556563  0.85679989    -0.11300
C475        C  0.55601715  0.83069260  0.86646768     0.21300
C476        C  0.54961162  0.82812232  0.89547959    -0.20700
C477        C  0.55551099  0.85030584  0.91434518    -0.11500
C478        C  0.54779000  0.80722269  0.84700382    -0.15700
C479        C  0.54249400  0.81145434  0.81918960    -0.29500
C480        C  0.57357137  0.90036225  0.92337853    -0.03800
C481        C  0.56029292  0.90445273  0.94835352    -0.40300
H482        H  0.58544646  0.89688827  0.86758760     0.12400
H483        H  0.57586820  0.85798640  0.83479819     0.12100
H484        H  0.53955863  0.80902892  0.90352158     0.11500
H485        H  0.55038601  0.84723430  0.93655026     0.11700
H486        H  0.54376228  0.78641219  0.85626112     0.14500
H487        H  0.54494334  0.83245606  0.80990998     0.13300
H488        H  0.58807758  0.91667369  0.91582054     0.10900
H489        H  0.54572666  0.88873534  0.95674319     0.13000
C490        C  0.45595731  0.14197963  0.69102407     0.19000
C491        C  0.47673692  0.14735530  0.67021872    -0.19000
C492        C  0.47774156  0.13088392  0.64525195    -0.11300
C493        C  0.45786842  0.10889056  0.64067634     0.21300
C494        C  0.43639514  0.10465895  0.66087683    -0.20700
C495        C  0.43567227  0.12072286  0.68586095    -0.11500
C496        C  0.45922672  0.08898946  0.61601895    -0.15700
C497        C  0.48357438  0.08194294  0.60273636    -0.29500
C498        C  0.45698327  0.15485137  0.71990636    -0.03800
C499        C  0.46798784  0.18052828  0.72660282    -0.40300
H500        H  0.49297380  0.16326561  0.67379335     0.12400
H501        H  0.49427101  0.13515504  0.62986337     0.12100
H502        H  0.42078693  0.08798079  0.65791272     0.11500
H503        H  0.41960471  0.11596420  0.70164729     0.11700
H504        H  0.43998764  0.07728874  0.61072160     0.14500
H505        H  0.50341333  0.09220406  0.60859927     0.13300
H506        H  0.44854031  0.14174915  0.73699683     0.10900
H507        H  0.47469191  0.19516089  0.71004503     0.13000
C508        C  0.52325371  0.08209889  0.90238657     0.19000
C509        C  0.49908499  0.07944805  0.88496055    -0.19000
C510        C  0.49008022  0.10213503  0.86783712    -0.11300
C511        C  0.50502520  0.12803724  0.86810726     0.21300
C512        C  0.52867425  0.13095084  0.88621283    -0.20700
C513        C  0.53784957  0.10817123  0.90309906    -0.11500
C514        C  0.49668452  0.15236509  0.84974059    -0.15700
C515        C  0.48436422  0.14885284  0.82410390    -0.29500
C516        C  0.53141540  0.05814702  0.92122934    -0.03800
C517        C  0.55836437  0.05319081  0.92963075    -0.40300
H518        H  0.48717095  0.05974665  0.88459110     0.12400
H519        H  0.47120635  0.09945405  0.85480676     0.12100
H520        H  0.54026711  0.15083000  0.88706500     0.11500
H521        H  0.55591143  0.11126957  0.91715891     0.11700
H522        H  0.50322707  0.17353341  0.85634348     0.14500
H523        H  0.47969846  0.12762711  0.81630655     0.13300
H524        H  0.51456332  0.04436534  0.92895118     0.10900
H525        H  0.57558867  0.06651139  0.92205901     0.13000
C526        C  0.49287099  0.10890775  0.35993008     0.19000
C527        C  0.50908989  0.13398200  0.36079104    -0.19000
C528        C  0.50891886  0.15295020  0.33768288    -0.11300
C529        C  0.49281199  0.14680430  0.31314215     0.21300
C530        C  0.47585706  0.12230186  0.31275027    -0.20700
C531        C  0.47574039  0.10360936  0.33586760    -0.11500
C532        C  0.49709392  0.16207322  0.28590056    -0.15700
C533        C  0.50524539  0.18938886  0.28312909    -0.29500
C534        C  0.49640668  0.08725869  0.38282749    -0.03800
C535        C  0.47614520  0.06817524  0.38924348    -0.40300
H536        H  0.52265671  0.13839688  0.37897952     0.12400
H537        H  0.52276133  0.17131183  0.33832495     0.12100
H538        H  0.46366070  0.11688044  0.29387162     0.11500
H539        H  0.46355044  0.08420387  0.33399853     0.11700
H540        H  0.49457796  0.14936984  0.26668319     0.14500
H541        H  0.50588273  0.20364702  0.30129850     0.13300
H542        H  0.51646349  0.08678867  0.39449429     0.10900
H543        H  0.45526686  0.06957708  0.37929858     0.13000
C544        C  0.58558483  0.10259389  0.11264299     0.19000
C545        C  0.59129208  0.10060033  0.14189892    -0.19000
C546        C  0.58459521  0.12319473  0.16002884    -0.11300
C547        C  0.57209232  0.14827428  0.14908759     0.21300
C548        C  0.56837103  0.15098383  0.11955906    -0.20700
C549        C  0.57500673  0.12837947  0.10145918    -0.11500
C550        C  0.56154032  0.17145394  0.16777364    -0.15700
C551        C  0.55259444  0.16654051  0.19445949    -0.29500
C552        C  0.58976713  0.07714138  0.09456066    -0.03800
C553        C  0.57285711  0.07182347  0.07207234    -0.40300
H554        H  0.59998471  0.08114168  0.15088049     0.12400
H555        H  0.58895215  0.12075898  0.18255359     0.12100
H556        H  0.55934389  0.17027799  0.11055457     0.11500
H557        H  0.57148874  0.13104960  0.07880461     0.11700
H558        H  0.55856747  0.19247327  0.15849397     0.14500
H559        H  0.55410395  0.14531395  0.20349148     0.13300
H560        H  0.60548913  0.06133834  0.10105954     0.10900
H561        H  0.55673164  0.08716367  0.06556181     0.13000
C562        C  0.49385068  0.85148604  0.36380467     0.19000
C563        C  0.47517688  0.82898232  0.35758427    -0.19000
C564        C  0.47938652  0.81184418  0.33342632    -0.11300
C565        C  0.50226853  0.81723173  0.31490986     0.21300
C566        C  0.52122652  0.83923574  0.32162861    -0.20700
C567        C  0.51710215  0.85617019  0.34560149    -0.11500
C568        C  0.50600923  0.80281164  0.28699011    -0.15700
C569        C  0.49347469  0.77841315  0.27866710    -0.29500
C570        C  0.48744839  0.87154237  0.38755742    -0.03800
C571        C  0.50798927  0.88692481  0.40026703    -0.40300
H572        H  0.45694165  0.82509285  0.37107314     0.12400
H573        H  0.46406896  0.79534520  0.32876034     0.12100
H574        H  0.53888306  0.84405890  0.30765874     0.11500
H575        H  0.53147375  0.87381159  0.34886908     0.11700
H576        H  0.52034229  0.81322329  0.27215868     0.14500
H577        H  0.48048483  0.76618709  0.29325579     0.13300
H578        H  0.46537205  0.87468654  0.39369147     0.10900
H579        H  0.53016828  0.88281038  0.39527820     0.13000
C580        C  0.53215920  0.84312086  0.15932147     0.19000
C581        C  0.54630983  0.86857904  0.16578163    -0.19000
C582        C  0.55286271  0.88810713  0.14428000    -0.11300
C583        C  0.54512271  0.88254908  0.11582747     0.21300
C584        C  0.53058245  0.85730424  0.10947405    -0.20700
C585        C  0.52416483  0.83776715  0.13090316    -0.11500
C586        C  0.55045009  0.90286176  0.09226679    -0.15700
C587        C  0.57006928  0.92365749  0.09294010    -0.29500
C588        C  0.52486896  0.82330715  0.18283395    -0.03800
C589        C  0.52073855  0.79528873  0.17882049    -0.40300
H590        H  0.55226181  0.87339773  0.18757487     0.12400
H591        H  0.56331300  0.90769629  0.15022358     0.12100
H592        H  0.52399486  0.85273021  0.08780063     0.11500
H593        H  0.51230988  0.81892122  0.12515363     0.11700
H594        H  0.53778062  0.90028399  0.07298039     0.14500
H595        H  0.58298109  0.92729239  0.11179372     0.13300
H596        H  0.52341948  0.83202378  0.20421916     0.10900
H597        H  0.52365513  0.78598766  0.15788117     0.13000
C598        C  0.82769429  0.30133775  0.50476710     0.19000
C599        C  0.84536094  0.31324346  0.52567178    -0.19000
C600        C  0.86396200  0.33519872  0.51900440    -0.11300
C601        C  0.86535463  0.34614157  0.49111768     0.21300
C602        C  0.84743604  0.33452215  0.47008383    -0.20700
C603        C  0.82850174  0.31240688  0.47688182    -0.11500
C604        C  0.88691280  0.36815440  0.48382407    -0.15700
C605        C  0.89514250  0.38734383  0.50337615    -0.29500
C606        C  0.81253275  0.27478586  0.51233154    -0.03800
C607        C  0.78950954  0.26401212  0.49898932    -0.40300
H608        H  0.84558067  0.30475101  0.54715880     0.12400
H609        H  0.87817327  0.34263235  0.53559814     0.12100
H610        H  0.84842437  0.34224894  0.44835871     0.11500
H611        H  0.81566048  0.30313317  0.46011039     0.11700
H612        H  0.89733926  0.36729935  0.46322435     0.14500
H613        H  0.88395556  0.38848813  0.52353692     0.13300
H614        H  0.82158193  0.26285677  0.53010877     0.10900
H615        H  0.77831674  0.27603133  0.48261198     0.13000
C616        C  0.86491240  0.62557909  0.48039476     0.19000
C617        C  0.86216276  0.64759601  0.46017435    -0.19000
C618        C  0.84238820  0.66980022  0.46417914    -0.11300
C619        C  0.82497461  0.67021672  0.48848311     0.21300
C620        C  0.82618718  0.64709351  0.50738178    -0.20700
C621        C  0.84558454  0.62485193  0.50322941    -0.11500
C622        C  0.80989063  0.69642536  0.49783278    -0.15700
C623        C  0.79677597  0.71542307  0.48061566    -0.29500
C624        C  0.88899375  0.60470968  0.47824516    -0.03800
C625        C  0.90085746  0.59252411  0.50153441    -0.40300
H626        H  0.87646879  0.64851700  0.44216131     0.12400
H627        H  0.84220283  0.68755427  0.44943999     0.12100
H628        H  0.81289793  0.64686248  0.52619283     0.11500
H629        H  0.84598695  0.60762509  0.51854662     0.11700
H630        H  0.81070061  0.70091513  0.52055890     0.14500
H631        H  0.79344532  0.71088365  0.45817059     0.13300
H632        H  0.89855083  0.60104521  0.45752658     0.10900
H633        H  0.89255380  0.59749025  0.52248109     0.13000
C634        C  0.10562508  0.33141655  0.49482156     0.19000
C635        C  0.13317352  0.32883929  0.48346823    -0.19000
C636        C  0.14942500  0.30401238  0.48806034    -0.11300
C637        C  0.13805388  0.28114186  0.50370781     0.21300
C638        C  0.11017936  0.28359938  0.51421982    -0.20700
C639        C  0.09422264  0.30834406  0.50994410    -0.11500
C640        C  0.15364397  0.25409501  0.50974877    -0.15700
C641        C  0.18152651  0.24862468  0.50494836    -0.29500
C642        C  0.08858247  0.35790636  0.49050571    -0.03800
C643        C  0.07185459  0.36821312  0.51131129    -0.40300
H644        H  0.14227819  0.34623659  0.47144615     0.12400
H645        H  0.17061692  0.30285615  0.47922517     0.12100
H646        H  0.10064158  0.26627488  0.52603581     0.11500
H647        H  0.07275808  0.30926790  0.51824954     0.11700
H648        H  0.14096291  0.23753174  0.51964264     0.14500
H649        H  0.19514035  0.26432170  0.49502645     0.13300
H650        H  0.09027197  0.36930976  0.47043783     0.10900
H651        H  0.07211677  0.35792896  0.53206542     0.13000
C652        C  0.14821356  0.68107014  0.52029436     0.19000
C653        C  0.13432146  0.66480537  0.54096454    -0.19000
C654        C  0.11757082  0.64163026  0.53330723    -0.11300
C655        C  0.11416663  0.63383719  0.50450298     0.21300
C656        C  0.12831858  0.65003694  0.48365528    -0.20700
C657        C  0.14539259  0.67338437  0.49146334    -0.11500
C658        C  0.09403274  0.61067295  0.49591804    -0.15700
C659        C  0.08559957  0.59041513  0.51436858    -0.29500
C660        C  0.16167669  0.70795279  0.52981519    -0.03800
C661        C  0.18470788  0.72042602  0.51817488    -0.40300
H662        H  0.13566669  0.67066272  0.56326104     0.12400
H663        H  0.10625684  0.63094867  0.55018423     0.12100
H664        H  0.12567939  0.64497686  0.46129131     0.11500
H665        H  0.15521345  0.68610999  0.47498783     0.11700
H666        H  0.08468262  0.61136010  0.47470185     0.14500
H667        H  0.09532511  0.58902678  0.53530539     0.13300
H668        H  0.15211317  0.71770922  0.54848189     0.10900
H669        H  0.19608269  0.71026421  0.50083345     0.13000
C670        C  0.87477329  0.51233388  0.65388472     0.19000
C671        C  0.87710451  0.53530783  0.67280962    -0.19000
C672        C  0.86062915  0.53651825  0.69751468    -0.11300
C673        C  0.84089473  0.51505870  0.70386968     0.21300
C674        C  0.83781159  0.49233415  0.68453732    -0.20700
C675        C  0.85460290  0.49097616  0.65980237    -0.11500
C676        C  0.82575384  0.51659288  0.73177339    -0.15700
C677        C  0.80212290  0.50190512  0.73890374    -0.29500
C678        C  0.89399533  0.51169278  0.62857493    -0.03800
C679        C  0.90184898  0.48779083  0.61476483    -0.40300
H680        H  0.89229069  0.55214096  0.66882756     0.12400
H681        H  0.86358119  0.55425730  0.71194649     0.12100
H682        H  0.82309518  0.47520541  0.68874799     0.11500
H683        H  0.85170789  0.47321838  0.64545059     0.11700
H684        H  0.83470166  0.53110238  0.74743026     0.14500
H685        H  0.79160243  0.48839407  0.72340447     0.13300
H686        H  0.90391687  0.53163897  0.62245024     0.10900
H687        H  0.89348462  0.46732132  0.62129842     0.13000
C688        C  0.88722886  0.56480761  0.91063226     0.19000
C689        C  0.86886549  0.54145107  0.91247316    -0.19000
C690        C  0.85231754  0.53339115  0.88908197    -0.11300
C691        C  0.85405893  0.54840403  0.86317946     0.21300
C692        C  0.87295088  0.57134953  0.86108868    -0.20700
C693        C  0.88926203  0.57967393  0.88467231    -0.11500
C694        C  0.83720767  0.53963877  0.83788364    -0.15700
C695        C  0.81113477  0.52831466  0.84048971    -0.29500
C696        C  0.90523367  0.57187523  0.93560141    -0.03800
C697        C  0.91403389  0.59838393  0.94163415    -0.40300
H698        H  0.86735703  0.52937067  0.93209097     0.12400
H699        H  0.83871934  0.51495834  0.89114002     0.12100
H700        H  0.87500699  0.58288694  0.84120727     0.11500
H701        H  0.90395774  0.59719662  0.88229937     0.11700
H702        H  0.84626506  0.54284078  0.81686171     0.14500
H703        H  0.80143813  0.52685644  0.86140789     0.13300
H704        H  0.91117114  0.55460190  0.94992560     0.10900
H705        H  0.90831879  0.61605571  0.92779855     0.13000
C706        C  0.10310705  0.50979488  0.65807566     0.19000
C707        C  0.10084152  0.53387177  0.67555931    -0.19000
C708        C  0.11673301  0.53602085  0.70067446    -0.11300
C709        C  0.13593538  0.51448848  0.70879851     0.21300
C710        C  0.13915733  0.49068036  0.69085365    -0.20700
C711        C  0.12276107  0.48828821  0.66573971    -0.11500
C712        C  0.14995326  0.51701933  0.73726003    -0.15700
C713        C  0.17449685  0.50420701  0.74544891    -0.29500
C714        C  0.08442372  0.50841523  0.63228560    -0.03800
C715        C  0.07510814  0.48416049  0.62011684    -0.40300
H716        H  0.08606108  0.55084044  0.67017096     0.12400
H717        H  0.11372352  0.55455789  0.71405746     0.12100
H718        H  0.15353175  0.47352797  0.69660332     0.11500
H719        H  0.12547866  0.46967619  0.65246107     0.11700
H720        H  0.13938940  0.53104713  0.75231448     0.14500
H721        H  0.18649014  0.49133172  0.73049593     0.13300
H722        H  0.07600061  0.52852832  0.62436593     0.10900
H723        H  0.08206575  0.46364943  0.62828297     0.13000
C724        C  0.08615341  0.57422531  0.91360683     0.19000
C725        C  0.10174077  0.54872559  0.91469051    -0.19000
C726        C  0.11722158  0.53947523  0.89116494    -0.11300
C727        C  0.11747678  0.55555434  0.86588935     0.21300
C728        C  0.10126042  0.58064445  0.86435768    -0.20700
C729        C  0.08585708  0.59007776  0.88807692    -0.11500
C730        C  0.13474066  0.54625274  0.84119039    -0.15700
C731        C  0.16061190  0.53457786  0.84521215    -0.29500
C732        C  0.06892992  0.58206659  0.93886722    -0.03800
C733        C  0.05792635  0.60805916  0.94377794    -0.40300
H734        H  0.10187459  0.53580675  0.93383822     0.12400
H735        H  0.12879037  0.51953867  0.89268745     0.12100
H736        H  0.10084100  0.59313244  0.84493731     0.11500
H737        H  0.07335329  0.60934835  0.88602783     0.11700
H738        H  0.12662070  0.54983692  0.81975634     0.14500
H739        H  0.16926613  0.53313016  0.86669080     0.13300
H740        H  0.06448072  0.56524234  0.95415072     0.10900
H741        H  0.06151704  0.62554252  0.92915387     0.13000
C742        C  0.83979102  0.48786769  0.30139507     0.19000
C743        C  0.85857442  0.50914762  0.31071217    -0.19000
C744        C  0.87691728  0.50460804  0.33382305    -0.11300
C745        C  0.87705447  0.47850743  0.34861472     0.21300
C746        C  0.85843651  0.45699525  0.33919683    -0.20700
C747        C  0.83984875  0.46162146  0.31594894    -0.11500
C748        C  0.89735423  0.47296525  0.37285351    -0.15700
C749        C  0.90842265  0.49415023  0.38880336    -0.29500
C750        C  0.82217401  0.49399345  0.27545488    -0.03800
C751        C  0.79922993  0.47920093  0.26619954    -0.40300
H752        H  0.85938340  0.52944995  0.29975988     0.12400
H753        H  0.89154356  0.52145243  0.33937283     0.12100
H754        H  0.85832426  0.43651927  0.34982550     0.11500
H755        H  0.82615317  0.44445573  0.30911444     0.11700
H756        H  0.90341153  0.45110169  0.37751506     0.14500
H757        H  0.90146043  0.51587772  0.38508564     0.13300
H758        H  0.82847538  0.51267267  0.26338014     0.10900
H759        H  0.79149772  0.46103921  0.27812567     0.13000
C760        C  0.83537860  0.56634159  0.16252498     0.19000
C761        C  0.86465065  0.57015884  0.16711900    -0.19000
C762        C  0.88175218  0.58184531  0.14593621    -0.11300
C763        C  0.86992521  0.58989309  0.11952242     0.21300
C764        C  0.84042131  0.58784121  0.11549077    -0.20700
C765        C  0.82322563  0.57617579  0.13675284    -0.11500
C766        C  0.88806474  0.59980898  0.09576720    -0.15700
C767        C  0.91446353  0.58939555  0.09206349    -0.29500
C768        C  0.81904020  0.55056494  0.18450607    -0.03800
C769        C  0.79353549  0.53860073  0.17956315    -0.40300
H770        H  0.87453405  0.56328544  0.18688943     0.12400
H771        H  0.90427758  0.58430401  0.15024245     0.12100
H772        H  0.83078798  0.59444587  0.09551007     0.11500
H773        H  0.80063557  0.57469834  0.13258562     0.11700
H774        H  0.87919598  0.61470767  0.08033683     0.14500
H775        H  0.92315397  0.57411402  0.10718984     0.13300
H776        H  0.82974268  0.54618920  0.20464611     0.10900
H777        H  0.78252789  0.54189476  0.15948817     0.13000
C778        C  0.11509231  0.50902922  0.35828867     0.19000
C779        C  0.11818060  0.53535583  0.34448527    -0.19000
C780        C  0.13519034  0.53805190  0.32029291    -0.11300
C781        C  0.15014989  0.51463121  0.30924030     0.21300
C782        C  0.14796540  0.48828160  0.32342764    -0.20700
C783        C  0.13056127  0.48548082  0.34770205    -0.11500
C784        C  0.16563630  0.51870135  0.28176744    -0.15700
C785        C  0.18664265  0.50197549  0.27121569    -0.29500
C786        C  0.09505863  0.50766166  0.38306494    -0.03800
C787        C  0.08428321  0.48365430  0.39453563    -0.40300
H788        H  0.10676677  0.55393902  0.35204251     0.12400
H789        H  0.13634129  0.55862072  0.30989152     0.12100
H790        H  0.15891768  0.46967337  0.31538322     0.11500
H791        H  0.12921148  0.46488012  0.35787983     0.11700
H792        H  0.15944039  0.53743860  0.26957320     0.14500
H793        H  0.19471135  0.48402460  0.28342526     0.13300
H794        H  0.08725827  0.52789286  0.39117146     0.10900
H795        H  0.09081202  0.46296474  0.38666559     0.13000
C796        C  0.13795668  0.57832675  0.16322629     0.19000
C797        C  0.10860665  0.58026642  0.16829273    -0.19000
C798        C  0.09036277  0.59238357  0.14807303    -0.11300
C799        C  0.10110339  0.60282373  0.12218411     0.21300
C800        C  0.13062632  0.60260389  0.11779176    -0.20700
C801        C  0.14896453  0.59038518  0.13806534    -0.11500
C802        C  0.08178703  0.61268923  0.09904833    -0.15700
C803        C  0.05662046  0.59992903  0.09439318    -0.29500
C804        C  0.15585087  0.56294594  0.18449873    -0.03800
C805        C  0.18154164  0.55168919  0.17867763    -0.40300
H806        H  0.09960583  0.57166091  0.18768197     0.12400
H807        H  0.06779793  0.59324637  0.15264108     0.12100
H808        H  0.13940753  0.61098102  0.09820436     0.11500
H809        H  0.17156375  0.59031012  0.13376796     0.11700
H810        H  0.08913621  0.62902782  0.08445251     0.14500
H811        H  0.04961117  0.58326346  0.10877546     0.13300
H812        H  0.14643670  0.55878434  0.20519875     0.10900
H813        H  0.19108369  0.55458321  0.15788893     0.13000
C814        C  0.51309123  0.29724080  0.16563508     0.19000
C815        C  0.53175779  0.30644911  0.14436335    -0.19000
C816        C  0.52439782  0.32877983  0.12618020    -0.11300
C817        C  0.49804385  0.34294591  0.12879077     0.21300
C818        C  0.47935876  0.33407503  0.15041048    -0.20700
C819        C  0.48684127  0.31151394  0.16883006    -0.11500
C820        C  0.48917550  0.36529322  0.10770483    -0.15700
C821        C  0.50856120  0.38063604  0.09328388    -0.29500
C822        C  0.52095013  0.27077336  0.18133209    -0.03800
C823        C  0.51002730  0.26205920  0.20637879    -0.40300
H824        H  0.55192025  0.29564105  0.14112236     0.12400
H825        H  0.53905605  0.33385634  0.10924171     0.12100
H826        H  0.45876533  0.34426971  0.15270795     0.11500
H827        H  0.47163054  0.30459714  0.18461303     0.11700
H828        H  0.46664968  0.36817437  0.10307794     0.14500
H829        H  0.53092986  0.37865405  0.09884514     0.13300
H830        H  0.53698775  0.25747057  0.17124818     0.10900
H831        H  0.49504304  0.27537023  0.21786129     0.13000
C832        C  0.50792258  0.66037933  0.17422488     0.19000
C833        C  0.53121788  0.64598548  0.16242935    -0.19000
C834        C  0.52714111  0.62376741  0.14315988    -0.11300
C835        C  0.49946846  0.61592371  0.13451690     0.21300
C836        C  0.47610344  0.62917321  0.14779422    -0.20700
C837        C  0.48024471  0.65119576  0.16752193    -0.11500
C838        C  0.49412603  0.59525323  0.11091588    -0.15700
C839        C  0.51442008  0.58659136  0.09260129    -0.29500
C840        C  0.51326435  0.68770179  0.18892071    -0.03800
C841        C  0.49642037  0.69924844  0.20898002    -0.40300
H842        H  0.55274886  0.65267389  0.16736533     0.12400
H843        H  0.54590479  0.61352286  0.13472757     0.12100
H844        H  0.45455187  0.62340623  0.14188899     0.11500
H845        H  0.46183563  0.66221471  0.17596347     0.11700
H846        H  0.47237264  0.58814988  0.10748079     0.14500
H847        H  0.53620405  0.59370021  0.09482506     0.13300
H848        H  0.53157479  0.69975214  0.18159003     0.10900
H849        H  0.47932176  0.68709542  0.21855305     0.13000
C850        C  0.50163331  0.68074069  0.84482527     0.19000
C851        C  0.48930020  0.68016235  0.87199326    -0.19000
C852        C  0.48822451  0.65495583  0.88774615    -0.11300
C853        C  0.49988893  0.62962520  0.87686338     0.21300
C854        C  0.51170693  0.62995260  0.84937704    -0.20700
C855        C  0.51231963  0.65522581  0.83330784    -0.11500
C856        C  0.50235594  0.60368232  0.89505352    -0.15700
C857        C  0.48285253  0.59710354  0.91490323    -0.29500
C858        C  0.50593880  0.70895173  0.83114314    -0.03800
C859        C  0.50787503  0.71376560  0.80287275    -0.40300
H860        H  0.48120069  0.69957057  0.88148042     0.12400
H861        H  0.47959305  0.65574438  0.90907582     0.12100
H862        H  0.52105748  0.61077313  0.84061744     0.11500
H863        H  0.52245389  0.65505943  0.81264252     0.11700
H864        H  0.52086322  0.58999748  0.89238160     0.14500
H865        H  0.46328074  0.60942813  0.91617941     0.13300
H866        H  0.50707847  0.72705155  0.84551146     0.10900
H867        H  0.50475710  0.69655032  0.78778565     0.13000
C868        C  0.68880228  0.46908301  0.84531369     0.19000
C869        C  0.66444344  0.48449036  0.83680892    -0.19000
C870        C  0.63863367  0.48118749  0.85149061    -0.11300
C871        C  0.63675250  0.46212936  0.87463161     0.21300
C872        C  0.66073671  0.44577868  0.88198255    -0.20700
C873        C  0.68655314  0.44955982  0.86782860    -0.11500
C874        C  0.61092130  0.45969604  0.89274223    -0.15700
C875        C  0.59442019  0.48219787  0.89925966    -0.29500
C876        C  0.71762286  0.47581401  0.83438362    -0.03800
C877        C  0.72366500  0.48388147  0.80746921    -0.40300
H878        H  0.66571030  0.50010300  0.81987494     0.12400
H879        H  0.62038388  0.49384154  0.84504970     0.12100
H880        H  0.65988790  0.43099136  0.89969412     0.11500
H881        H  0.70509527  0.43770242  0.87500250     0.11700
H882        H  0.60789821  0.43990528  0.90434894     0.14500
H883        H  0.59857997  0.50274219  0.88954276     0.13300
H884        H  0.73494094  0.47433662  0.84980211     0.10900
H885        H  0.70736880  0.48340154  0.79098458     0.13000
C886        C  0.48052003  0.28590589  0.84583306     0.19000
C887        C  0.46375784  0.29140878  0.86987694    -0.19000
C888        C  0.46753033  0.31618437  0.88584627    -0.11300
C889        C  0.48856706  0.33608796  0.87842376     0.21300
C890        C  0.50527049  0.33073386  0.85415751    -0.20700
C891        C  0.50110024  0.30600435  0.83777860    -0.11500
C892        C  0.49479984  0.36109733  0.89710262    -0.15700
C893        C  0.47465303  0.37346461  0.91335111    -0.29500
C894        C  0.47823854  0.25739216  0.83234348    -0.03800
C895        C  0.48170097  0.25168029  0.80435844    -0.40300
H896        H  0.44808998  0.27603379  0.87680441     0.12400
H897        H  0.45481079  0.31892189  0.90481355     0.12100
H898        H  0.52188030  0.34547833  0.84815882     0.11500
H899        H  0.51481993  0.30198149  0.81973805     0.11700
H900        H  0.51647931  0.36907579  0.89791326     0.14500
H901        H  0.45266451  0.36669482  0.91128602     0.13300
H902        H  0.47235988  0.24010235  0.84654221     0.10900
H903        H  0.48549545  0.26880220  0.78930266     0.13000
C904        C  0.33957690  0.48267350  0.88931757     0.19000
C905        C  0.32797123  0.46294456  0.86992148    -0.19000
C906        C  0.30395835  0.47008300  0.85314128    -0.11300
C907        C  0.29097647  0.49701427  0.85583900     0.21300
C908        C  0.30270838  0.51656542  0.87509939    -0.20700
C909        C  0.32647612  0.50957490  0.89159304    -0.11500
C910        C  0.26338299  0.50494042  0.84213349    -0.15700
C911        C  0.25181243  0.49367066  0.81824958    -0.29500
C912        C  0.36384193  0.47461632  0.90862996    -0.03800
C913        C  0.38142480  0.49450484  0.91948620    -0.40300
H914        H  0.33725355  0.44189438  0.86804444     0.12400
H915        H  0.29500062  0.45423614  0.83902626     0.12100
H916        H  0.29288241  0.53725831  0.87807201     0.11500
H917        H  0.33367153  0.52506079  0.90703141     0.11700
H918        H  0.25167638  0.52181080  0.85283075     0.14500
H919        H  0.26344331  0.47817805  0.80567243     0.13300
H920        H  0.36637585  0.45250378  0.91497568     0.10900
H921        H  0.37967969  0.51627718  0.91192003     0.13000
C922        C  0.35455082  0.48177256  0.13203505     0.19000
C923        C  0.33987104  0.46091287  0.14771871    -0.19000
C924        C  0.31595544  0.46822905  0.16427457    -0.11300
C925        C  0.30613892  0.49657014  0.16506023     0.21300
C926        C  0.32109578  0.51729835  0.14973568    -0.20700
C927        C  0.34481134  0.51011401  0.13348229    -0.11500
C928        C  0.27879739  0.50551803  0.17837751    -0.15700
C929        C  0.26463968  0.49219113  0.19956492    -0.29500
C930        C  0.37795365  0.47352065  0.11205101    -0.03800
C931        C  0.39762844  0.49238916  0.10330029    -0.40300
H932        H  0.34654379  0.43884763  0.14665152     0.12400
H933        H  0.30455024  0.45160087  0.17532672     0.12100
H934        H  0.31380763  0.53921825  0.14954828     0.11500
H935        H  0.35444874  0.52679635  0.12095574     0.11700
H936        H  0.26979803  0.52519566  0.16999612     0.14500
H937        H  0.27361667  0.47352416  0.20994089     0.13300
H938        H  0.37767947  0.45231858  0.10284744     0.10900
H939        H  0.39855510  0.51323814  0.11314497     0.13000
C940        C  0.63280962  0.46468861  0.12396725     0.19000
C941        C  0.65340162  0.44409409  0.13140130    -0.19000
C942        C  0.67399340  0.44987679  0.15250909    -0.11300
C943        C  0.67401516  0.47629994  0.16663294     0.21300
C944        C  0.65197030  0.49571615  0.16081427    -0.20700
C945        C  0.63145845  0.48990424  0.14004457    -0.11500
C946        C  0.69876031  0.48672258  0.18347332    -0.15700
C947        C  0.71800766  0.47057870  0.19764087    -0.29500
C948        C  0.61394289  0.46053101  0.09856336    -0.03800
C949        C  0.60566959  0.48284562  0.08236115    -0.40300
H950        H  0.65461436  0.42426886  0.11971210     0.12400
H951        H  0.69085584  0.43454089  0.15632285     0.12100
H952        H  0.65132727  0.51611980  0.17153948     0.11500
H953        H  0.61509066  0.50570415  0.13597542     0.11700
H954        H  0.70201004  0.50964178  0.18308732     0.14500
H955        H  0.71475077  0.44791004  0.20059329     0.13300
H956        H  0.60796723  0.43908399  0.09239313     0.10900
H957        H  0.61309676  0.50402643  0.08773489     0.13000
loop_ 
_geom_bond_atom_site_label_1 
_geom_bond_atom_site_label_2 
_geom_bond_distance 
_geom_bond_site_symmetry_2 
_ccdc_geom_bond_type 
N1            N2   1.318       .  A
N1            N7   1.316       .  A
N1          Mn30   2.203   1_554  S
N2            C9   1.350       .  A
N3            N5   1.317       .  A
N3            N4   1.324       .  A
N3          Mn19   2.224       .  S
N4           C10   1.357       .  A
N5            N6   1.320       .  A
N5          Mn30   2.200       .  S
N6           C10   1.350       .  A
N7            N8   1.327       .  A
N7          Mn19   2.221   1_554  S
N8            C9   1.357       .  A
C9          C949   1.478       .  S
C10         C875   1.480       .  S
N11          N17   1.318       .  A
N11          N12   1.320       .  A
N11         Mn41   2.213   1_556  S
N12          C20   1.351       .  A
N13          N14   1.317       .  A
N13          N15   1.318       .  A
N13         Mn19   2.205   1_554  S
N14          C21   1.348       .  A
N15          N16   1.328       .  A
N15         Mn41   2.230       .  S
N16          C21   1.359       .  A
N17          N18   1.326       .  A
N17         Mn19   2.223       .  S
N18          C20   1.357       .  A
Mn19        Cl43   2.548   1_556  S
C20         C893   1.482       .  S
C21         C821   1.478       .  S
N22          N23   1.325       .  A
N22          N28   1.315       .  A
N22         Mn30   2.214       .  S
N23          C31   1.357       .  A
N24          N26   1.315       .  A
N24          N25   1.323       .  A
N24         Mn42   2.203       .  S
N25          C32   1.355       .  A
N26          N27   1.319       .  A
N26         Mn30   2.206   1_554  S
N27          C32   1.351       .  A
N28          N29   1.320       .  A
N28         Mn42   2.202   1_556  S
N29          C31   1.351       .  A
Mn30        Cl43   2.552   1_556  S
C31         C857   1.479       .  S
C32         C839   1.475       .  S
N33          N34   1.328       .  A
N33          N39   1.316       .  A
N33         Mn41   2.226       .  S
N34          C44   1.358       .  A
N35          N36   1.316       .  A
N35          N37   1.317       .  A
N35         Mn42   2.198   1_556  S
N36          C45   1.348       .  A
N37          N38   1.329       .  A
N37         Mn41   2.234   1_556  S
N38          C45   1.360       .  A
N39          N40   1.317       .  A
N39         Mn42   2.194       .  S
N40          C44   1.348       .  A
Mn41        Cl43   2.568       .  S
Mn42        Cl43   2.537       .  S
C44         C931   1.478       .  S
C45         C913   1.479       .  S
C46          N47   1.359       .  A
C46          N51   1.369       .  A
C46         C929   1.492       .  S
N47          C48   1.350       .  A
C48          N49   1.355       .  A
C48         C805   1.476       .  S
N49          C50   1.361       .  A
C50          N51   1.370       .  A
C50         C785   1.494       .  S
C52          N53   1.367       .  A
C52          N57   1.357       .  A
C52         C947   1.485       .  S
N53          C54   1.369       .  A
C54          N55   1.361       .  A
C54         C751   1.493       .  S
N55          C56   1.355       .  A
C56          N57   1.350       .  A
C56         C769   1.474       .  S
C58          N59   1.364       .  A
C58          N63   1.370       .  A
C58         C713   1.491       .  S
N59          C60   1.355       .  A
C60          N61   1.349       .  A
C60         C731   1.472       .  S
N61          C62   1.356       .  A
C62          N63   1.367       .  A
C62         C911   1.491       .  S
C64          N65   1.363       .  A
C64          N69   1.368       .  A
C64         C677   1.490       .  S
N65          C66   1.357       .  A
C66          N67   1.351       .  A
C66         C695   1.472       .  S
N67          C68   1.356       .  A
C68          N69   1.365       .  A
C68         C877   1.485       .  S
N70          C75   1.353       .  A
N70          C74   1.352   1_655  A
N70         H102   1.035       .  S
N71          C78   1.352   1_554  A
N71          C79   1.353       .  A
N72          C77   1.351       .  A
N72          C76   1.352   1_655  A
N72         H103   1.035       .  S
N73          C80   1.352   1_554  A
N73          C81   1.352       .  A
C74          C82   1.388   1_455  A
C74          C90   1.414       .  A
C75          C91   1.415       .  A
C75          C83   1.388       .  A
C76          C84   1.387   1_455  A
C76          C93   1.413       .  A
C77          C92   1.413       .  A
C77          C85   1.388       .  A
C78          C90   1.417       .  A
C78          C86   1.386   1_556  A
C79          C93   1.417       .  A
C79          C87   1.386       .  A
C80          C88   1.387   1_556  A
C80          C91   1.417       .  A
C81          C89   1.386       .  A
C81          C92   1.415       .  A
C82          C83   1.375       .  A
C82          H94   1.082   1_655  S
C83          H95   1.082       .  S
C84          C85   1.373       .  A
C84          H96   1.083   1_655  S
C85          H97   1.083       .  S
C86          C87   1.372       .  A
C86          H98   1.082   1_554  S
C87          H99   1.081       .  S
C88          C89   1.372       .  A
C88         H100   1.081   1_554  S
C89         H101   1.081       .  S
C90         C733   1.486       .  S
C91         C697   1.486       .  S
C92         C767   1.484       .  S
C93         C803   1.487       .  S
N104        N105   1.316       .  A
N104        N110   1.317       .  A
N104       Mn133   2.194   1_455  S
N105        C112   1.348       .  A
N106        N108   1.317       .  A
N106        N107   1.326       .  A
N106       Mn122   2.224       .  S
N107        C113   1.357       .  A
N108        N109   1.319       .  A
N108       Mn133   2.207       .  S
N109        C113   1.351       .  A
N110        N111   1.327       .  A
N110       Mn122   2.224   1_455  S
N111        C112   1.358       .  A
C112        C659   1.475       .  S
C113        C625   1.481       .  S
N114        N120   1.318       .  A
N114        N115   1.329       .  A
N114       Mn144   2.233       .  S
N115        C123   1.359       .  A
N116        N117   1.324       .  A
N116        N118   1.319       .  A
N116       Mn122   2.227   1_455  S
N117        C124   1.356       .  A
N118        N119   1.324       .  A
N118       Mn144   2.227   1_455  S
N119        C124   1.355       .  A
N120        N121   1.319       .  A
N120       Mn122   2.209       .  S
N121        C123   1.350       .  A
Mn122      Cl146   2.555       .  S
C123        C749   1.485       .  S
C124        C787   1.491       .  S
N125        N126   1.323       .  A
N125        N131   1.314       .  A
N125       Mn133   2.210       .  S
N126        C134   1.356       .  A
N127        N129   1.316       .  A
N127        N128   1.325       .  A
N127       Mn145   2.220   1_455  S
N128        C135   1.356       .  A
N129        N130   1.321       .  A
N129       Mn133   2.210   1_455  S
N130        C135   1.354       .  A
N131        N132   1.323       .  A
N131       Mn145   2.212       .  S
N132        C134   1.354       .  A
Mn133      Cl146   2.552       .  S
C134        C679   1.486       .  S
C135        C715   1.487       .  S
N136        N137   1.326       .  A
N136        N142   1.318       .  A
N136       Mn144   2.230   1_455  S
N137        C147   1.357       .  A
N138        N139   1.315       .  A
N138        N140   1.318       .  A
N138       Mn145   2.193       .  S
N139        C148   1.346       .  A
N140        N141   1.327       .  A
N140       Mn144   2.224       .  S
N141        C148   1.357       .  A
N142        N143   1.318       .  A
N142       Mn145   2.200   1_455  S
N143        C147   1.349       .  A
Mn144      Cl146   2.570       .  S
Mn145      Cl146   2.544       .  S
C147        C643   1.478       .  S
C148        C605   1.470       .  S
C149        N150   1.364       .  A
C149        N154   1.361       .  A
C149        C569   1.483       .  S
N150        C151   1.363       .  A
C151        N152   1.358       .  A
C151        C841   1.477       .  S
N152        C153   1.351       .  A
C153        N154   1.355       .  A
C153        C589   1.474       .  S
C155        N156   1.363       .  A
C155        N160   1.366       .  A
C155        C823   1.487       .  S
N156        C157   1.356       .  A
C157        N158   1.349       .  A
C157        C551   1.472       .  S
N158        C159   1.355       .  A
C159        N160   1.363       .  A
C159        C533   1.477       .  S
C161        N162   1.368       .  A
C161        N166   1.360       .  A
C161        C895   1.489       .  S
N162        C163   1.368       .  A
C163        N164   1.357       .  A
C163        C499   1.486       .  S
N164        C165   1.349       .  A
C165        N166   1.354       .  A
C165        C515   1.471       .  S
C167        N168   1.365       .  A
C167        N172   1.356       .  A
C167        C463   1.483       .  S
N168        C169   1.367       .  A
C169        N170   1.362       .  A
C169        C859   1.486       .  S
N170        C171   1.355       .  A
C171        N172   1.347       .  A
C171        C479   1.471       .  S
N173        C178   1.350       .  A
N173        C177   1.352   1_554  A
N173        H205   1.036       .  S
N174        C181   1.351   1_565  A
N174        C182   1.350       .  A
N175        C180   1.352       .  A
N175        C179   1.352   1_554  A
N175        H206   1.036       .  S
N176        C183   1.352   1_565  A
N176        C184   1.352       .  A
C177        C185   1.388       .  A
C177        C193   1.411       .  A
C178        C194   1.410       .  A
C178        C186   1.387       .  A
C179        C187   1.387   1_556  A
C179        C196   1.413       .  A
C180        C195   1.415       .  A
C180        C188   1.387       .  A
C181        C193   1.412       .  A
C181        C189   1.386   1_545  A
C182        C196   1.414       .  A
C182        C190   1.387       .  A
C183        C191   1.387       .  A
C183        C194   1.414       .  A
C184        C192   1.386       .  A
C184        C195   1.412       .  A
C185        C186   1.374   1_556  A
C185        H197   1.082       .  S
C186        H198   1.083       .  S
C187        C188   1.375       .  A
C187        H199   1.083   1_554  S
C188        H200   1.082       .  S
C189        C190   1.372       .  A
C189        H201   1.082   1_565  S
C190        H202   1.082       .  S
C191        C192   1.372   1_545  A
C191        H203   1.082       .  S
C192        H204   1.082       .  S
C193        C517   1.482       .  S
C194        C553   1.482       .  S
C195        C587   1.488       .  S
C196        C481   1.484       .  S
C207        N208   1.357       .  A
C207        N212   1.365       .  A
C207        C661   1.487       .  S
N208        C209   1.350       .  A
C209        N210   1.355       .  A
C209        C443   1.474       .  S
N210        C211   1.362       .  A
C211        N212   1.367       .  A
C211        C425   1.487       .  S
C213        N214   1.366       .  A
C213        N218   1.360       .  A
C213        C389   1.480       .  S
N214        C215   1.364       .  A
C215        N216   1.358       .  A
C215        C607   1.482       .  S
N216        C217   1.350       .  A
C217        N218   1.353       .  A
C217        C409   1.471       .  S
C219        N220   1.368       .  A
C219        N224   1.360       .  A
C219        C641   1.488       .  S
N220        C221   1.366       .  A
C221        N222   1.356       .  A
C221        C353   1.481       .  S
N222        C223   1.348       .  A
C223        N224   1.352       .  A
C223        C371   1.468       .  S
C225        N226   1.361       .  A
C225        N230   1.368       .  A
C225        C317   1.492       .  S
N226        C227   1.355       .  A
C227        N228   1.352       .  A
C227        C335   1.477       .  S
N228        C229   1.358       .  A
C229        N230   1.367       .  A
C229        C623   1.483       .  S
N231        C236   1.350       .  A
N231        C235   1.352   1_565  A
N231        H263   1.033       .  S
N232        C239   1.351       .  A
N232        C240   1.350       .  A
N233        C238   1.352       .  A
N233        C237   1.352   1_565  A
N233        H264   1.035       .  S
N234        C241   1.355       .  A
N234        C242   1.354   1_655  A
C235        C243   1.386   1_545  A
C235        C251   1.410       .  A
C236        C252   1.413       .  A
C236        C244   1.388       .  A
C237        C245   1.386       .  A
C237        C254   1.415       .  A
C238        C253   1.414       .  A
C238        C246   1.388       .  A
C239        C251   1.413       .  A
C239        C247   1.387       .  A
C240        C254   1.409   1_655  A
C240        C248   1.386       .  A
C241        C249   1.386       .  A
C241        C252   1.419       .  A
C242        C250   1.386       .  A
C242        C253   1.418       .  A
C243        C244   1.375       .  A
C243        H255   1.082   1_565  S
C244        H256   1.083       .  S
C245        C246   1.375   1_545  A
C245        H257   1.082       .  S
C246        H258   1.083       .  S
C247        C248   1.370       .  A
C247        H259   1.082       .  S
C248        H260   1.082       .  S
C249        C250   1.376   1_655  A
C249        H261   1.082       .  S
C250        H262   1.082       .  S
C251        C407   1.483       .  S
C252        C337   1.488       .  S
C253        C445   1.489       .  S
C254        C373   1.486       .  S
N265        N266   1.320       .  A
N265        N271   1.315       .  A
N265       Mn294   2.210       .  S
N266        C273   1.353       .  A
N267        N269   1.315       .  A
N267        N268   1.318       .  A
N267       Mn283   2.201   1_545  S
N268        C274   1.350       .  A
N269        N270   1.324       .  A
N269       Mn294   2.210   1_545  S
N270        C274   1.356       .  A
N271        N272   1.325       .  A
N271       Mn283   2.207       .  S
N272        C273   1.355       .  A
C273        C319   1.479       .  S
C274        C391   1.474       .  S
N275        N281   1.315       .  A
N275        N276   1.320       .  A
N275       Mn305   2.199   1_545  S
N276        C284   1.350       .  A
N277        N278   1.317       .  A
N277        N279   1.316       .  A
N277       Mn283   2.196       .  S
N278        C285   1.349       .  A
N279        N280   1.325       .  A
N279       Mn305   2.216       .  S
N280        C285   1.357       .  A
N281        N282   1.322       .  A
N281       Mn283   2.204   1_545  S
N282        C284   1.354       .  A
Mn283      Cl307   2.548       .  S
C284        C535   1.474       .  S
C285        C571   1.474       .  S
N286        N287   1.321       .  A
N286        N292   1.316       .  A
N286       Mn294   2.200   1_545  S
N287        C295   1.351       .  A
N288        N290   1.318       .  A
N288        N289   1.326       .  A
N288       Mn306   2.223       .  S
N289        C296   1.357       .  A
N290        N291   1.317       .  A
N290       Mn294   2.199       .  S
N291        C296   1.348       .  A
N292        N293   1.323       .  A
N292       Mn306   2.219   1_545  S
N293        C295   1.356       .  A
Mn294      Cl307   2.542       .  S
C295        C497   1.480       .  S
C296        C461   1.473       .  S
N297        N298   1.321       .  A
N297        N303   1.317       .  A
N297       Mn305   2.200       .  S
N298        C308   1.351       .  A
N299        N300   1.326       .  A
N299        N301   1.317       .  A
N299       Mn306   2.224   1_545  S
N300        C309   1.358       .  A
N301        N302   1.317       .  A
N301       Mn305   2.199   1_545  S
N302        C309   1.348       .  A
N303        N304   1.323       .  A
N303       Mn306   2.221       .  S
N304        C308   1.356       .  A
Mn305      Cl307   2.547       .  S
Mn306      Cl307   2.559       .  S
C308        C427   1.481       .  S
C309        C355   1.474       .  S
C310        C318   1.496       .  S
C310        C311   1.408       .  A
C310        C315   1.406       .  A
C311        C312   1.409       .  A
C311        H320   1.083       .  S
C312        C313   1.409       .  A
C312        H321   1.081       .  S
C313        C316   1.493       .  S
C313        C314   1.404       .  A
C314        C315   1.394       .  A
C314        H322   1.084       .  S
C315        H323   1.082       .  S
C316        H324   1.087       .  S
C316        C317   1.353       .  D
C317        H325   1.084       .  S
C318        H326   1.087       .  S
C318        C319   1.350       .  D
C319        H327   1.085       .  S
C328        C336   1.488       .  S
C328        C329   1.401       .  A
C328        C333   1.409       .  A
C329        C330   1.400       .  A
C329        H338   1.083       .  S
C330        C331   1.411       .  A
C330        H339   1.079       .  S
C331        C334   1.492       .  S
C331        C332   1.404       .  A
C332        C333   1.398       .  A
C332        H340   1.084       .  S
C333        H341   1.082       .  S
C334        H342   1.087       .  S
C334        C335   1.347       .  D
C335        H343   1.082       .  S
C336        H344   1.087       .  S
C336        C337   1.343       .  D
C337        H345   1.086       .  S
C346        C354   1.490       .  S
C346        C347   1.406       .  A
C346        C351   1.407       .  A
C347        C348   1.404       .  A
C347        H356   1.083       .  S
C348        C349   1.406       .  A
C348        H357   1.082       .  S
C349        C352   1.482       .  S
C349        C350   1.402       .  A
C350        C351   1.395       .  A
C350        H358   1.084       .  S
C351        H359   1.082       .  S
C352        H360   1.088       .  S
C352        C353   1.349       .  D
C353        H361   1.085       .  S
C354        H362   1.087       .  S
C354        C355   1.343       .  D
C355        H363   1.086       .  S
C364        C372   1.476       .  S
C364        C365   1.399       .  A
C364        C369   1.407       .  A
C365        C366   1.390       .  A
C365        H374   1.084       .  S
C366        C367   1.407       .  A
C366        H375   1.081       .  S
C367        C370   1.482       .  S
C367        C368   1.404       .  A
C368        C369   1.399       .  A
C368        H376   1.083       .  S
C369        H377   1.082       .  S
C370        H378   1.087       .  S
C370        C371   1.344       .  D
C371        H379   1.085       .  S
C372        H380   1.088       .  S
C372        C373   1.342       .  D
C373        H381   1.085       .  S
C382        C390   1.488       .  S
C382        C383   1.405       .  A
C382        C387   1.407       .  A
C383        C384   1.405       .  A
C383        H392   1.083       .  S
C384        C385   1.407       .  A
C384        H393   1.083       .  S
C385        C388   1.482       .  S
C385        C386   1.401       .  A
C386        C387   1.394       .  A
C386        H394   1.084       .  S
C387        H395   1.082       .  S
C388        H396   1.088       .  S
C388        C389   1.347       .  D
C389        H397   1.086       .  S
C390        H398   1.087       .  S
C390        C391   1.345       .  D
C391        H399   1.086       .  S
C400        C408   1.480       .  S
C400        C401   1.403       .  A
C400        C405   1.404       .  A
C401        C402   1.400       .  A
C401        H410   1.083       .  S
C402        C403   1.408       .  A
C402        H411   1.081       .  S
C403        C406   1.480       .  S
C403        C404   1.402       .  A
C404        C405   1.393       .  A
C404        H412   1.084       .  S
C405        H413   1.083       .  S
C406        H414   1.089       .  S
C406        C407   1.344       .  D
C407        H415   1.084       .  S
C408        H416   1.087       .  S
C408        C409   1.344       .  D
C409        H417   1.086       .  S
C418        C426   1.495       .  S
C418        C419   1.403       .  A
C418        C423   1.413       .  A
C419        C420   1.396       .  A
C419        H428   1.083       .  S
C420        C421   1.403       .  A
C420        H429   1.084       .  S
C421        C424   1.488       .  S
C421        C422   1.407       .  A
C422        C423   1.406       .  A
C422        H430   1.082       .  S
C423        H431   1.080       .  S
C424        H432   1.087       .  S
C424        C425   1.350       .  D
C425        H433   1.085       .  S
C426        H434   1.087       .  S
C426        C427   1.346       .  D
C427        H435   1.083       .  S
C436        C444   1.493       .  S
C436        C437   1.404       .  A
C436        C441   1.412       .  A
C437        C438   1.399       .  A
C437        H446   1.083       .  S
C438        C439   1.407       .  A
C438        H447   1.082       .  S
C439        C442   1.486       .  S
C439        C440   1.401       .  A
C440        C441   1.398       .  A
C440        H448   1.084       .  S
C441        H449   1.079       .  S
C442        H450   1.087       .  S
C442        C443   1.344       .  D
C443        H451   1.085       .  S
C444        H452   1.087       .  S
C444        C445   1.345       .  D
C445        H453   1.082       .  S
C454        C462   1.484       .  S
C454        C455   1.402       .  A
C454        C459   1.407       .  A
C455        C456   1.391       .  A
C455        H464   1.084       .  S
C456        C457   1.408       .  A
C456        H465   1.080       .  S
C457        C460   1.494       .  S
C457        C458   1.407       .  A
C458        C459   1.406       .  A
C458        H466   1.083       .  S
C459        H467   1.082       .  S
C460        H468   1.087       .  S
C460        C461   1.346       .  D
C461        H469   1.084       .  S
C462        H470   1.088       .  S
C462        C463   1.349       .  D
C463        H471   1.085       .  S
C472        C480   1.484       .  S
C472        C473   1.402       .  A
C472        C477   1.408       .  A
C473        C474   1.397       .  A
C473        H482   1.084       .  S
C474        C475   1.408       .  A
C474        H483   1.081       .  S
C475        C478   1.484       .  S
C475        C476   1.401       .  A
C476        C477   1.396       .  A
C476        H484   1.083       .  S
C477        H485   1.080       .  S
C478        H486   1.087       .  S
C478        C479   1.342       .  D
C479        H487   1.085       .  S
C480        H488   1.087       .  S
C480        C481   1.344       .  D
C481        H489   1.083       .  S
C490        C498   1.486       .  S
C490        C491   1.407       .  A
C490        C495   1.403       .  A
C491        C492   1.406       .  A
C491        H500   1.082       .  S
C492        C493   1.411       .  A
C492        H501   1.082       .  S
C493        C496   1.490       .  S
C493        C494   1.402       .  A
C494        C495   1.396       .  A
C494        H502   1.084       .  S
C495        H503   1.084       .  S
C496        H504   1.087       .  S
C496        C497   1.345       .  D
C497        H505   1.085       .  S
C498        H506   1.088       .  S
C498        C499   1.351       .  D
C499        H507   1.085       .  S
C508        C516   1.478       .  S
C508        C509   1.401       .  A
C508        C513   1.406       .  A
C509        C510   1.397       .  A
C509        H518   1.083       .  S
C510        C511   1.407       .  A
C510        H519   1.082       .  S
C511        C514   1.481       .  S
C511        C512   1.402       .  A
C512        C513   1.396       .  A
C512        H520   1.083       .  S
C513        H521   1.082       .  S
C514        H522   1.087       .  S
C514        C515   1.343       .  D
C515        H523   1.085       .  S
C516        H524   1.087       .  S
C516        C517   1.343       .  D
C517        H525   1.085       .  S
C526        C534   1.487       .  S
C526        C527   1.406       .  A
C526        C531   1.406       .  A
C527        C528   1.403       .  A
C527        H536   1.083       .  S
C528        C529   1.406       .  A
C528        H537   1.082       .  S
C529        C532   1.480       .  S
C529        C530   1.402       .  A
C530        C531   1.395       .  A
C530        H538   1.084       .  S
C531        H539   1.082       .  S
C532        H540   1.088       .  S
C532        C533   1.347       .  D
C533        H541   1.085       .  S
C534        H542   1.087       .  S
C534        C535   1.345       .  D
C535        H543   1.085       .  S
C544        C552   1.480       .  S
C544        C545   1.400       .  A
C544        C549   1.407       .  A
C545        C546   1.397       .  A
C545        H554   1.084       .  S
C546        C547   1.409       .  A
C546        H555   1.081       .  S
C547        C550   1.484       .  S
C547        C548   1.401       .  A
C548        C549   1.396       .  A
C548        H556   1.083       .  S
C549        H557   1.082       .  S
C550        H558   1.087       .  S
C550        C551   1.343       .  D
C551        H559   1.085       .  S
C552        H560   1.087       .  S
C552        C553   1.342       .  D
C553        H561   1.086       .  S
C562        C570   1.492       .  S
C562        C563   1.406       .  A
C562        C567   1.407       .  A
C563        C564   1.406       .  A
C563        H572   1.083       .  S
C564        C565   1.408       .  A
C564        H573   1.081       .  S
C565        C568   1.487       .  S
C565        C566   1.402       .  A
C566        C567   1.393       .  A
C566        H574   1.084       .  S
C567        H575   1.081       .  S
C568        H576   1.088       .  S
C568        C569   1.348       .  D
C569        H577   1.085       .  S
C570        H578   1.086       .  S
C570        C571   1.345       .  D
C571        H579   1.085       .  S
C580        C588   1.485       .  S
C580        C581   1.403       .  A
C580        C585   1.407       .  A
C581        C582   1.399       .  A
C581        H590   1.083       .  S
C582        C583   1.407       .  A
C582        H591   1.081       .  S
C583        C586   1.482       .  S
C583        C584   1.402       .  A
C584        C585   1.395       .  A
C584        H592   1.084       .  S
C585        H593   1.081       .  S
C586        H594   1.088       .  S
C586        C587   1.346       .  D
C587        H595   1.084       .  S
C588        H596   1.087       .  S
C588        C589   1.345       .  D
C589        H597   1.085       .  S
C598        C606   1.482       .  S
C598        C599   1.400       .  A
C598        C603   1.408       .  A
C599        C600   1.390       .  A
C599        H608   1.084       .  S
C600        C601   1.407       .  A
C600        H609   1.082       .  S
C601        C604   1.490       .  S
C601        C602   1.406       .  A
C602        C603   1.407       .  A
C602        H610   1.083       .  S
C603        H611   1.082       .  S
C604        H612   1.086       .  S
C604        C605   1.344       .  D
C605        H613   1.086       .  S
C606        H614   1.088       .  S
C606        C607   1.347       .  D
C607        H615   1.085       .  S
C616        C624   1.497       .  S
C616        C617   1.408       .  A
C616        C621   1.408       .  A
C617        C618   1.407       .  A
C617        H626   1.083       .  S
C618        C619   1.407       .  A
C618        H627   1.083       .  S
C619        C622   1.486       .  S
C619        C620   1.402       .  A
C620        C621   1.398       .  A
C620        H628   1.084       .  S
C621        H629   1.082       .  S
C622        H630   1.088       .  S
C622        C623   1.348       .  D
C623        H631   1.086       .  S
C624        H632   1.086       .  S
C624        C625   1.350       .  D
C625        H633   1.085       .  S
C634        C642   1.490       .  S
C634        C635   1.406       .  A
C634        C639   1.404       .  A
C635        C636   1.407       .  A
C635        H644   1.083       .  S
C636        C637   1.409       .  A
C636        H645   1.081       .  S
C637        C640   1.490       .  S
C637        C638   1.405       .  A
C638        C639   1.394       .  A
C638        H646   1.084       .  S
C639        H647   1.083       .  S
C640        H648   1.087       .  S
C640        C641   1.353       .  D
C641        H649   1.084       .  S
C642        H650   1.086       .  S
C642        C643   1.345       .  D
C643        H651   1.087       .  S
C652        C660   1.483       .  S
C652        C653   1.399       .  A
C652        C657   1.407       .  A
C653        C654   1.392       .  A
C653        H662   1.084       .  S
C654        C655   1.409       .  A
C654        H663   1.080       .  S
C655        C658   1.499       .  S
C655        C656   1.409       .  A
C656        C657   1.409       .  A
C656        H664   1.083       .  S
C657        H665   1.083       .  S
C658        H666   1.087       .  S
C658        C659   1.348       .  D
C659        H667   1.083       .  S
C660        H668   1.087       .  S
C660        C661   1.349       .  D
C661        H669   1.086       .  S
C670        C678   1.495       .  S
C670        C671   1.403       .  A
C670        C675   1.411       .  A
C671        C672   1.398       .  A
C671        H680   1.083       .  S
C672        C673   1.405       .  A
C672        H681   1.084       .  S
C673        C676   1.495       .  S
C673        C674   1.409       .  A
C674        C675   1.408       .  A
C674        H682   1.081       .  S
C675        H683   1.082       .  S
C676        H684   1.087       .  S
C676        C677   1.352       .  D
C677        H685   1.085       .  S
C678        H686   1.087       .  S
C678        C679   1.348       .  D
C679        H687   1.085       .  S
C688        C696   1.480       .  S
C688        C689   1.401       .  A
C688        C693   1.407       .  A
C689        C690   1.395       .  A
C689        H698   1.084       .  S
C690        C691   1.407       .  A
C690        H699   1.082       .  S
C691        C694   1.483       .  S
C691        C692   1.402       .  A
C692        C693   1.400       .  A
C692        H700   1.083       .  S
C693        H701   1.082       .  S
C694        H702   1.087       .  S
C694        C695   1.343       .  D
C695        H703   1.086       .  S
C696        H704   1.088       .  S
C696        C697   1.344       .  D
C697        H705   1.085       .  S
C706        C714   1.493       .  S
C706        C707   1.402       .  A
C706        C711   1.411       .  A
C707        C708   1.396       .  A
C707        H716   1.084       .  S
C708        C709   1.403       .  A
C708        H717   1.084       .  S
C709        C712   1.491       .  S
C709        C710   1.409       .  A
C710        C711   1.409       .  A
C710        H718   1.082       .  S
C711        H719   1.082       .  S
C712        H720   1.087       .  S
C712        C713   1.352       .  D
C713        H721   1.085       .  S
C714        H722   1.087       .  S
C714        C715   1.349       .  D
C715        H723   1.085       .  S
C724        C732   1.484       .  S
C724        C725   1.402       .  A
C724        C729   1.410       .  A
C725        C726   1.394       .  A
C725        H734   1.084       .  S
C726        C727   1.405       .  A
C726        H735   1.083       .  S
C727        C730   1.483       .  S
C727        C728   1.402       .  A
C728        C729   1.402       .  A
C728        H736   1.083       .  S
C729        H737   1.081       .  S
C730        H738   1.087       .  S
C730        C731   1.343       .  D
C731        H739   1.087       .  S
C732        H740   1.088       .  S
C732        C733   1.345       .  D
C733        H741   1.084       .  S
C742        C750   1.495       .  S
C742        C743   1.405       .  A
C742        C747   1.409       .  A
C743        C744   1.397       .  A
C743        H752   1.084       .  S
C744        C745   1.408       .  A
C744        H753   1.081       .  S
C745        C748   1.502       .  S
C745        C746   1.409       .  A
C746        C747   1.410       .  A
C746        H754   1.083       .  S
C747        H755   1.081       .  S
C748        H756   1.086       .  S
C748        C749   1.350       .  D
C749        H757   1.084       .  S
C750        H758   1.087       .  S
C750        C751   1.354       .  D
C751        H759   1.084       .  S
C760        C768   1.487       .  S
C760        C761   1.402       .  A
C760        C765   1.411       .  A
C761        C762   1.394       .  A
C761        H770   1.084       .  S
C762        C763   1.406       .  A
C762        H771   1.082       .  S
C763        C766   1.482       .  S
C763        C764   1.401       .  A
C764        C765   1.399       .  A
C764        H772   1.083       .  S
C765        H773   1.080       .  S
C766        H774   1.087       .  S
C766        C767   1.343       .  D
C767        H775   1.086       .  S
C768        H776   1.087       .  S
C768        C769   1.344       .  D
C769        H777   1.083       .  S
C778        C786   1.500       .  S
C778        C779   1.404       .  A
C778        C783   1.413       .  A
C779        C780   1.397       .  A
C779        H788   1.084       .  S
C780        C781   1.404       .  A
C780        H789   1.084       .  S
C781        C784   1.496       .  S
C781        C782   1.409       .  A
C782        C783   1.411       .  A
C782        H790   1.082       .  S
C783        H791   1.081       .  S
C784        H792   1.087       .  S
C784        C785   1.355       .  D
C785        H793   1.085       .  S
C786        H794   1.087       .  S
C786        C787   1.350       .  D
C787        H795   1.084       .  S
C796        C804   1.486       .  S
C796        C797   1.402       .  A
C796        C801   1.410       .  A
C797        C798   1.394       .  A
C797        H806   1.084       .  S
C798        C799   1.406       .  A
C798        H807   1.082       .  S
C799        C802   1.484       .  S
C799        C800   1.402       .  A
C800        C801   1.401       .  A
C800        H808   1.083       .  S
C801        H809   1.081       .  S
C802        H810   1.086       .  S
C802        C803   1.344       .  D
C803        H811   1.086       .  S
C804        H812   1.087       .  S
C804        C805   1.344       .  D
C805        H813   1.084       .  S
C814        C822   1.489       .  S
C814        C815   1.401       .  A
C814        C819   1.409       .  A
C815        C816   1.393       .  A
C815        H824   1.084       .  S
C816        C817   1.408       .  A
C816        H825   1.081       .  S
C817        C820   1.498       .  S
C817        C818   1.408       .  A
C818        C819   1.409       .  A
C818        H826   1.083       .  S
C819        H827   1.082       .  S
C820        H828   1.086       .  S
C820        C821   1.347       .  D
C821        H829   1.084       .  S
C822        H830   1.087       .  S
C822        C823   1.348       .  D
C823        H831   1.085       .  S
C832        C840   1.480       .  S
C832        C833   1.400       .  A
C832        C837   1.405       .  A
C833        C834   1.395       .  A
C833        H842   1.084       .  S
C834        C835   1.410       .  A
C834        H843   1.079       .  S
C835        C838   1.495       .  S
C835        C836   1.407       .  A
C836        C837   1.403       .  A
C836        H844   1.083       .  S
C837        H845   1.083       .  S
C838        H846   1.087       .  S
C838        C839   1.348       .  D
C839        H847   1.082       .  S
C840        H848   1.088       .  S
C840        C841   1.346       .  D
C841        H849   1.086       .  S
C850        C858   1.487       .  S
C850        C851   1.403       .  A
C850        C855   1.407       .  A
C851        C852   1.396       .  A
C851        H860   1.084       .  S
C852        C853   1.406       .  A
C852        H861   1.082       .  S
C853        C856   1.491       .  S
C853        C854   1.407       .  A
C854        C855   1.406       .  A
C854        H862   1.083       .  S
C855        H863   1.082       .  S
C856        H864   1.087       .  S
C856        C857   1.346       .  D
C857        H865   1.086       .  S
C858        H866   1.087       .  S
C858        C859   1.349       .  D
C859        H867   1.086       .  S
C868        C876   1.484       .  S
C868        C869   1.407       .  A
C868        C873   1.403       .  A
C869        C870   1.406       .  A
C869        H878   1.083       .  S
C870        C871   1.410       .  A
C870        H879   1.082       .  S
C871        C874   1.489       .  S
C871        C872   1.402       .  A
C872        C873   1.397       .  A
C872        H880   1.083       .  S
C873        H881   1.083       .  S
C874        H882   1.087       .  S
C874        C875   1.345       .  D
C875        H883   1.086       .  S
C876        H884   1.088       .  S
C876        C877   1.350       .  D
C877        H885   1.086       .  S
C886        C894   1.486       .  S
C886        C887   1.403       .  A
C886        C891   1.406       .  A
C887        C888   1.397       .  A
C887        H896   1.084       .  S
C888        C889   1.407       .  A
C888        H897   1.082       .  S
C889        C892   1.496       .  S
C889        C890   1.408       .  A
C890        C891   1.408       .  A
C890        H898   1.083       .  S
C891        H899   1.083       .  S
C892        H900   1.086       .  S
C892        C893   1.348       .  D
C893        H901   1.085       .  S
C894        H902   1.087       .  S
C894        C895   1.351       .  D
C895        H903   1.086       .  S
C904        C912   1.499       .  S
C904        C905   1.409       .  A
C904        C909   1.408       .  A
C905        C906   1.411       .  A
C905        H914   1.083       .  S
C906        C907   1.408       .  A
C906        H915   1.082       .  S
C907        C910   1.489       .  S
C907        C908   1.402       .  A
C908        C909   1.393       .  A
C908        H916   1.084       .  S
C909        H917   1.081       .  S
C910        H918   1.087       .  S
C910        C911   1.353       .  D
C911        H919   1.085       .  S
C912        H920   1.086       .  S
C912        C913   1.348       .  D
C913        H921   1.085       .  S
C922        C930   1.498       .  S
C922        C923   1.409       .  A
C922        C927   1.408       .  A
C923        C924   1.410       .  A
C923        H932   1.083       .  S
C924        C925   1.408       .  A
C924        H933   1.082       .  S
C925        C928   1.490       .  S
C925        C926   1.402       .  A
C926        C927   1.393       .  A
C926        H934   1.084       .  S
C927        H935   1.081       .  S
C928        H936   1.087       .  S
C928        C929   1.353       .  D
C929        H937   1.085       .  S
C930        H938   1.086       .  S
C930        C931   1.348       .  D
C931        H939   1.084       .  S
C940        C948   1.495       .  S
C940        C941   1.407       .  A
C940        C945   1.407       .  A
C941        C942   1.408       .  A
C941        H950   1.083       .  S
C942        C943   1.408       .  A
C942        H951   1.082       .  S
C943        C946   1.487       .  S
C943        C944   1.402       .  A
C944        C945   1.395       .  A
C944        H952   1.084       .  S
C945        H953   1.082       .  S
C946        H954   1.088       .  S
C946        C947   1.349       .  D
C947        H955   1.085       .  S
C948        H956   1.086       .  S
C948        C949   1.349       .  D
C949        H957   1.085       .  S
