geometry optimzed in LAMMPS
_audit_creation_date              2020-11-30 
_audit_creation_method            'lammps2cif' 
_symmetry_space_group_name_H-M    'P1' 
_symmetry_Int_Tables_number       1 
_symmetry_cell_setting            triclinic 
loop_ 
_symmetry_equiv_pos_as_xyz 
  x,y,z 
_cell_length_a                    54.18993549 
_cell_length_b                    28.91030184847527 
_cell_length_c                    27.417365691595837 
_cell_angle_alpha                 88.77929694662836 
_cell_angle_beta                  118.82779030834476 
_cell_angle_gamma                 90.03622579739178 
loop_ 
_atom_site_label 
_atom_site_type_symbol 
_atom_site_fract_x 
_atom_site_fract_y 
_atom_site_fract_z 
_atom_site_charge 
N1          N  0.40954611  0.24715736  0.63870345    -0.02500
C2          C  0.42376778  0.21087953  0.67341350     0.00100
C3          C  0.45007619  0.20649398  0.67815704    -0.22800
C4          C  0.45254137  0.24068000  0.64573605    -0.23000
C5          C  0.42736751  0.26511223  0.62147527     0.00000
H6          H  0.46620046  0.18255927  0.70540515     0.13800
H7          H  0.47137188  0.24884792  0.64317689     0.13800
Zn8        Zn  0.18249402  0.24130686  0.46982132     1.49700
Zn9        Zn  0.24086497  0.25473916  0.58159753     1.49400
Zn10       Zn  0.23319748  0.28358465  0.45875849     1.49100
Zn11       Zn  0.20221452  0.34306295  0.51020237     1.49500
O12         O  0.21513618  0.28081372  0.50602756    -1.83100
O13         O  0.18672936  0.18475981  0.51462446    -0.73800
O14         O  0.27961186  0.24672033  0.58672591    -0.73600
O15         O  0.21124909  0.24824563  0.38748735    -0.73100
O16         O  0.22528505  0.19228953  0.59650011    -0.73800
O17         O  0.17486187  0.22101694  0.39472796    -0.73400
O18         O  0.27378632  0.26317748  0.50204141    -0.74000
O19         O  0.21260984  0.39065070  0.46715880    -0.73400
O20         O  0.24898645  0.30299508  0.64188195    -0.74100
O21         O  0.23634813  0.34898168  0.43643197    -0.73500
O22         O  0.22497216  0.36373571  0.58907190    -0.74000
O23         O  0.15955828  0.34418853  0.48513162    -0.73900
O24         O  0.14775814  0.27199890  0.45933252    -0.73700
C25         C  0.20348605  0.16944328  0.56328276     0.78100
C26         C  0.28965011  0.25303214  0.55338640     0.78600
C27         C  0.18825896  0.22589224  0.36771518     0.77600
C28         C  0.22750694  0.38789051  0.44272319     0.77900
C29         C  0.24253492  0.34602242  0.63618466     0.79100
C30         C  0.14101743  0.31240299  0.46607631     0.78100
N31         N  0.02182516  0.34681564  0.37895777    -0.02500
C32         C  0.51208253  0.39821359  0.34762301     0.00100
C33         C  0.48869866  0.40824136  0.35317159    -0.22800
C34         C  0.48423007  0.37115830  0.37926184    -0.23000
C35         C  0.50500711  0.33930909  0.38948325     0.00000
H36         H  0.47531498  0.43836145  0.33661400     0.13800
H37         H  0.46694947  0.36643898  0.38781049     0.13800
N38         N  0.27187283  0.08251352  0.35257031    -0.02500
C39         C  0.25885389  0.12144123  0.32213979     0.00100
C40         C  0.23202097  0.12507307  0.31480048    -0.22800
C41         C  0.22776746  0.08761511  0.34062550    -0.23000
C42         C  0.25264185  0.06254288  0.36474576     0.00000
H43         H  0.21715378  0.15206170  0.29188897     0.13800
H44         H  0.20856081  0.07935116  0.34168979     0.13800
Zn45       Zn  0.45000479  0.04670335  0.56504259     1.49700
Zn46       Zn  0.47635836  0.49033653  0.49474783     1.49400
Zn47       Zn  0.44219980  0.07972525  0.44360513     1.49100
Zn48       Zn  0.50092510  0.08990684  0.55232444     1.49500
O49         O  0.46770626  0.05095203  0.51638096    -1.83100
O50         O  0.44369573  0.48232415  0.57294704    -0.73800
O51         O  0.45551488  0.47431179  0.41299714    -0.73600
O52         O  0.40375788  0.08455515  0.43739214    -0.73100
O53         O  0.46184767  0.44354001  0.52875295    -0.73800
O54         O  0.40829909  0.06722597  0.52092571    -0.73400
O55         O  0.43495805  0.03802234  0.37914885    -0.74000
O56         O  0.49910514  0.14564257  0.50688968    -0.73400
O57         O  0.01964221  0.48461926  0.53081946    -0.74100
O58         O  0.45715423  0.14228143  0.43215152    -0.73500
O59         O  0.03657617  0.04775285  0.57441598    -0.74000
O60         O  0.50785579  0.11222641  0.62564399    -0.73900
O61         O  0.47363143  0.08221925  0.63816164    -0.73700
C62         C  0.44880765  0.44419824  0.55684955     0.78100
C63         C  0.43832116  0.49620430  0.36858600     0.78600
C64         C  0.39299296  0.07757257  0.46921736     0.77600
C65         C  0.48061390  0.16276616  0.46052581     0.77900
C66         C  0.04366333  0.00732439  0.56874425     0.79100
C67         C  0.49586360  0.10666474  0.65516730     0.78100
N68         N  0.15634565  0.47754890  0.62630408    -0.02500
C69         C  0.16572523  0.43426296  0.64915707     0.05300
C70         C  0.18560107  0.41842160  0.63570919    -0.22800
C71         C  0.19336591  0.94933758  0.60806367    -0.23000
C72         C  0.17460742  0.98363724  0.60391906     0.00000
H73         H  0.19822434  0.38730413  0.65206902     0.13800
H74         H  0.20918821  0.95178968  0.59490710     0.13800
N75         N  0.41380686  0.35589456  0.15680308    -0.02500
C76         C  0.42611280  0.39456166  0.18565918     0.00100
C77         C  0.45126655  0.40204146  0.18653700    -0.22800
C78         C  0.45510466  0.36727238  0.15767119    -0.23000
C79         C  0.43191673  0.33897768  0.13958109     0.00000
H80         H  0.46539163  0.42938520  0.20787725     0.13800
H81         H  0.47327545  0.36238359  0.15175874     0.13800
Zn82       Zn  0.23225548  0.35910779  0.99450214     1.49700
Zn83       Zn  0.25235833  0.25399569  0.03910392     1.49400
Zn84       Zn  0.20250824  0.29919215  0.05203425     1.49100
Zn85       Zn  0.19440724  0.27093030  0.93172929     1.49500
O86         O  0.22013699  0.29654182  0.00399822    -1.83100
O87         O  0.27604850  0.36165141  0.03528154    -0.73800
O88         O  0.25677874  0.22425031  0.10854684    -0.73600
O89         O  0.19777126  0.36562545  0.06931066    -0.73100
O90         O  0.28720297  0.28831325  0.06329342    -0.73800
O91         O  0.21551619  0.40734683  0.02480279    -0.73400
O92         O  0.22580494  0.26140377  0.12478458    -0.74000
O93         O  0.15580202  0.26121666  0.92514265    -0.73400
O94         O  0.25322906  0.20459710  0.98995743    -0.74100
O95         O  0.16188099  0.27698913  0.00938490    -0.73500
O96         O  0.21136512  0.21374544  0.91513307    -0.74000
O97         O  0.18765069  0.31667829  0.87074253    -0.73900
O98         O  0.21565598  0.37581906  0.91131953    -0.73700
C99         C  0.29442898  0.32956681  0.06082774     0.78100
C100        C  0.24591541  0.23203476  0.13947684     0.78600
C101        C  0.20242986  0.40471083  0.05306323     0.77600
C102        C  0.14603084  0.26587018  0.95884433     0.77900
C103        C  0.23531770  0.19320927  0.94112381     0.79100
C104        C  0.19733495  0.35601594  0.86752068     0.78100
N105        N  0.02660658  0.24225635  0.87009503    -0.02500
C106        C  0.51083548  0.21524696  0.83559712     0.00100
C107        C  0.48447213  0.21265622  0.83106737    -0.22800
C108        C  0.47986846  0.25243322  0.85153853    -0.23000
C109        C  0.50373839  0.27846920  0.86844798     0.00000
H110        H  0.46973124  0.18535886  0.81175530     0.13800
H111        H  0.46095125  0.26207347  0.85293498     0.13800
N112        N  0.27202853  0.51486154  0.82789492    -0.02500
C113        C  0.25789163  0.48697687  0.78316149     0.00100
C114        C  0.23039778  0.50119487  0.75201501    -0.22800
C115        C  0.22704641  0.03308559  0.78279895    -0.23000
C116        C  0.25325647  0.04440097  0.82520904     0.00000
H117        H  0.21496081  0.48676009  0.71355847     0.13800
H118        H  0.20723174  0.05049664  0.77118571     0.13800
N119        N  0.15724318  0.09207253  0.14785244    -0.02500
C120        C  0.17063447  0.13178347  0.17311110     0.00100
C121        C  0.19558776  0.13538186  0.17130100    -0.22800
C122        C  0.19794943  0.09737135  0.14498214    -0.23000
C123        C  0.17432457  0.07129985  0.13098623     0.00000
H124        H  0.21141806  0.16127188  0.19086088     0.13800
H125        H  0.21562690  0.08838400  0.13892375     0.13800
Zn126      Zn  0.44859856  0.06263026  0.04794748     1.49700
Zn127      Zn  0.49805323  0.51115453  0.04970186     1.49400
Zn128      Zn  0.44380130  0.02629366  0.93163292     1.49100
Zn129      Zn  0.48035691  0.11886772  0.99233236     1.49500
O130        O  0.46762242  0.05659675  0.00273428    -1.83100
O131        O  0.47121353  0.02720269  0.12343910    -0.73800
O132        O  0.49880389  0.45618184  0.00678427    -0.73600
O133        O  0.40630944  0.01039258  0.92569996    -0.73100
O134        O  0.50417644  0.49065111  0.12401148    -0.73800
O135        O  0.40786501  0.04089021  0.00133658    -0.73400
O136        O  0.46038084  0.46591592  0.92569872    -0.74000
O137        O  0.45819551  0.13579115  0.90921711    -0.73400
O138        O  0.03044905  0.03576340  0.07706809    -0.74100
O139        O  0.43364457  0.07254926  0.86987498    -0.73500
O140        O  0.02039637  0.10639491  0.03841109    -0.74000
O141        O  0.46830122  0.16980160  0.02927779    -0.73900
O142        O  0.44504354  0.13038693  0.06409216    -0.73700
C143        C  0.49274533  0.50047269  0.15345331     0.78100
C144        C  0.48307719  0.44357077  0.95719664     0.78600
C145        C  0.39441868  0.02170559  0.95407985     0.77600
C146        C  0.44014640  0.11430352  0.86658005     0.77900
C147        C  0.03825846  0.07455862  0.06733763     0.79100
C148        C  0.45345860  0.16891823  0.05412334     0.78100
C149        C  0.12751815  0.08378919  0.12591644     0.00800
C150        C  0.11759603  0.06225682  0.15916564    -0.11100
C151        C  0.08871126  0.06084283  0.14185383     0.03100
C152        C  0.06897694  0.08059195  0.08951929     0.00700
C153        C  0.07888244  0.09937564  0.05471293    -0.11000
C154        C  0.10781630  0.09956907  0.07182447     0.02900
H155        H  0.13233343  0.04588279  0.19837495     0.15900
H156        H  0.06395369  0.11150167  0.01298573     0.15900
C157        C  0.11667201  0.11177642  0.03147117     0.37600
C158        C  0.07996470  0.03895615  0.17887033     0.37500
N159        N  0.12356307  0.12043266  0.99842940    -0.42800
N160        N  0.07757759  0.52313143  0.20457618    -0.42800
C161        C  0.30385631  0.01703289  0.86103465     0.00800
C162        C  0.31949610  0.97576896  0.88345034    -0.11100
C163        C  0.34907900  0.97599620  0.91384757     0.03100
C164        C  0.36340848  0.01840747  0.92720353     0.00700
C165        C  0.34790814  0.05956716  0.90549091    -0.11000
C166        C  0.31870789  0.05901731  0.87037895     0.02900
H167        H  0.30639178  0.44070336  0.87383368     0.15900
H168        H  0.35902398  0.09204341  0.91213650     0.15900
C169        C  0.30547873  0.10078627  0.83882505     0.37600
C170        C  0.36168684  0.42841695  0.92809156     0.37500
N171        N  0.29544582  0.13438076  0.81303561    -0.42800
N172        N  0.37347356  0.39329729  0.93668044    -0.42800
C173        C  0.50537691  0.32533323  0.89062515     0.00800
C174        C  0.02432627  0.31809818  0.96370090    -0.11100
C175        C  0.01744459  0.35702011  0.98469406     0.03100
C176        C  0.49175960  0.40303535  0.93551540     0.00700
C177        C  0.48080130  0.39914538  0.87767421    -0.11000
C178        C  0.48733649  0.36082664  0.85525435     0.02900
H179        H  0.03828648  0.29157711  0.99228137     0.15900
H180        H  0.46649511  0.42555363  0.84962939     0.15900
C181        C  0.47382427  0.35695805  0.79545023     0.37600
C182        C  0.03038748  0.36027809  0.04449951     0.37500
N183        N  0.46302254  0.35342356  0.74761652    -0.42800
N184        N  0.04082756  0.36251761  0.09246715    -0.42800
C185        C  0.11517784  0.26079459  0.93749396     0.00800
C186        C  0.09628380  0.28147568  0.88563428    -0.11100
C187        C  0.06697286  0.27860264  0.86446543     0.03100
C188        C  0.05622841  0.25106806  0.89269311     0.00700
C189        C  0.07489102  0.23192162  0.94506691    -0.11000
C190        C  0.10396412  0.23836569  0.96857402     0.02900
H191        H  0.10443544  0.30150868  0.86273890     0.15900
H192        H  0.06649945  0.21261815  0.96806191     0.15900
C193        C  0.12147225  0.22215113  0.02485916     0.37600
C194        C  0.04842950  0.30580381  0.81563056     0.37500
N195        N  0.13481555  0.20885099  0.07026524    -0.42800
N196        N  0.03358147  0.32803016  0.77679392    -0.42800
C197        C  0.25605435  0.08519714  0.85972878     0.00800
C198        C  0.24206221  0.12594805  0.83058954    -0.11100
C199        C  0.23558795  0.16138430  0.85648686     0.03100
C200        C  0.24315758  0.15682560  0.91329465     0.00700
C201        C  0.25938764  0.11790775  0.94394850    -0.11000
C202        C  0.26567015  0.08196198  0.91750703     0.02900
H203        H  0.23494205  0.12906919  0.78628701     0.15900
H204        H  0.26613483  0.11464376  0.98809079     0.15900
C205        C  0.28038882  0.04118084  0.94962767     0.37600
C206        C  0.22135356  0.20229141  0.82373469     0.37500
N207        N  0.28616858  0.50412542  0.97396891    -0.42800
N208        N  0.21002804  0.23517301  0.79769138    -0.42800
C209        C  0.19201175  0.44781186  0.06695782     0.00800
C210        C  0.19060138  0.44939230  0.11688179    -0.11100
C211        C  0.18265752  0.49023044  0.13306978     0.03100
C212        C  0.17165876  0.02469967  0.10725255     0.00700
C213        C  0.17023160  0.02222874  0.05495744    -0.11000
C214        C  0.18296471  0.48735967  0.03104576     0.02900
H215        H  0.19680701  0.41918710  0.14450519     0.15900
H216        H  0.16441380  0.05290263  0.02815614     0.15900
C217        C  0.17967583  0.48650970  0.97566849     0.37600
C218        C  0.18379813  0.49079737  0.18675426     0.37500
N219        N  0.17623632  0.48601143  0.93065331    -0.42800
N220        N  0.18476492  0.49112166  0.22984322    -0.42800
C221        C  0.38395852  0.34823447  0.13189613     0.00800
C222        C  0.37342590  0.31820452  0.15779075    -0.11100
C223        C  0.34439038  0.31290655  0.13650220     0.03100
C224        C  0.32512269  0.33864320  0.08827062     0.00700
C225        C  0.33574259  0.37098128  0.06452186    -0.11000
C226        C  0.36488319  0.37629428  0.08653557     0.02900
H227        H  0.38784224  0.30017609  0.19591312     0.15900
H228        H  0.32134781  0.39186202  0.02862988     0.15900
C229        C  0.37504426  0.41316485  0.06510021     0.37600
C230        C  0.33509664  0.28218188  0.16659094     0.37500
N231        N  0.38368261  0.44352873  0.04989125    -0.42800
N232        N  0.32777516  0.25760889  0.19088590    -0.42800
C233        C  0.43055470  0.29486787  0.11030688     0.00800
C234        C  0.43736853  0.29704239  0.06677659    -0.11100
C235        C  0.44515471  0.25733593  0.04818016     0.03100
C236        C  0.44531860  0.21306269  0.07171179     0.00700
C237        C  0.43717823  0.21072604  0.11342130    -0.11000
C238        C  0.43065380  0.25077273  0.13364811     0.02900
H239        H  0.43835298  0.33065628  0.04944497     0.15900
H240        H  0.43744909  0.17750544  0.13282306     0.15900
C241        C  0.42758260  0.24555848  0.18271073     0.37600
C242        C  0.45389641  0.26393468  0.00644744     0.37500
N243        N  0.42576574  0.24003622  0.22271950    -0.42800
N244        N  0.97072956  0.25836514  0.00833705    -0.42800
C245        C  0.16725811  0.41593086  0.70179851     0.00800
C246        C  0.17873107  0.44427390  0.74838456    -0.11100
C247        C  0.18912502  0.42601427  0.80252215     0.03100
C248        C  0.18670923  0.37816208  0.81105813     0.00700
C249        C  0.17324449  0.35027174  0.76379511    -0.11000
C250        C  0.16408218  0.36848750  0.70986847     0.02900
H251        H  0.18038730  0.48097055  0.74238420     0.15900
H252        H  0.17075675  0.31357996  0.76891199     0.15900
C253        C  0.15206096  0.33764099  0.66349362     0.37600
C254        C  0.20312473  0.45728958  0.84794871     0.37500
N255        N  0.14244761  0.31283943  0.62640219    -0.42800
N256        N  0.21476332  0.48278504  0.88376245    -0.42800
C257        C  0.07409225  0.99802470  0.58630111     0.00800
C258        C  0.08186060  0.95612171  0.57236189    -0.11100
C259        C  0.10995343  0.94661636  0.58664084     0.03100
C260        C  0.13134729  0.97966525  0.61501513     0.00700
C261        C  0.12376772  0.02103119  0.63000130    -0.11000
C262        C  0.09572182  0.03053913  0.61626172     0.02900
H263        H  0.06594102  0.93045687  0.55016490     0.15900
H264        H  0.13982429  0.04560872  0.65413800     0.15900
C265        C  0.09030540  0.07374947  0.63510403     0.37600
C266        C  0.11622667  0.90181237  0.57295885     0.37500
N267        N  0.08608998  0.10840666  0.65030986    -0.42800
N268        N  0.12126973  0.86545233  0.56303987    -0.42800
C269        C  0.50776621  0.13052056  0.70943469     0.00800
C270        C  0.00432183  0.09907031  0.75931790    -0.11100
C271        C  0.01198053  0.12250948  0.80880856     0.03100
C272        C  0.51917898  0.18252051  0.80453833     0.00700
C273        C  0.52496202  0.20073575  0.76340577    -0.11000
C274        C  0.51973149  0.17520786  0.71647436     0.02900
H275        H  0.99634526  0.06412689  0.75491330     0.15900
H276        H  0.53022861  0.23673464  0.76402372     0.15900
C277        C  0.52351949  0.19829227  0.67331081     0.37600
C278        C  0.00995089  0.09832657  0.85338905     0.37500
N279        N  0.52650337  0.21700397  0.63879944    -0.42800
N280        N  0.00829758  0.07911333  0.88915323    -0.42800
C281        C  0.41739088  0.42237539  0.22002784     0.00800
C282        C  0.41514968  0.40003882  0.26364171    -0.11100
C283        C  0.41880477  0.42474409  0.31025591     0.03100
C284        C  0.42601672  0.47212127  0.31457761     0.00700
C285        C  0.42413080  0.49554276  0.26760961    -0.11000
C286        C  0.41951903  0.47118745  0.22032794     0.02900
H287        H  0.41313373  0.36275525  0.26386023     0.15900
H288        H  0.43295870  0.03283879  0.27901450     0.15900
C289        C  0.41829356  0.49697680  0.17358039     0.37600
C290        C  0.41634094  0.40033612  0.35419305     0.37500
N291        N  0.41689676  0.51841210  0.13620277    -0.42800
N292        N  0.41452036  0.38058489  0.38946737    -0.42800
C293        C  0.36167457  0.07700896  0.44275356     0.00800
C294        C  0.34687827  0.05542771  0.39095713    -0.11100
C295        C  0.31737363  0.05403010  0.36247002     0.03100
C296        C  0.30197915  0.07645648  0.38427813     0.00700
C297        C  0.31652072  0.09617069  0.43695942    -0.11000
C298        C  0.34608941  0.09555440  0.46692696     0.02900
H299        H  0.35847496  0.03880011  0.37300270     0.15900
H300        H  0.30458252  0.11258495  0.45429966     0.15900
C301        C  0.35943287  0.11488180  0.52153559     0.37600
C302        C  0.30345296  0.02820101  0.31202698     0.37500
N303        N  0.36912869  0.13039783  0.56537751    -0.42800
N304        N  0.29245043  0.00700887  0.27183969    -0.42800
C305        C  0.26770503  0.15191030  0.28920136     0.00800
C306        C  0.27005082  0.13210856  0.24538529    -0.11100
C307        C  0.26490666  0.15833205  0.19773651     0.03100
C308        C  0.25668101  0.20544534  0.19294924     0.00700
C309        C  0.25721322  0.22638675  0.23914212    -0.11000
C310        C  0.26304061  0.20021049  0.28723409     0.02900
H311        H  0.27212615  0.09505791  0.24470202     0.15900
H312        H  0.25181993  0.26278858  0.23675680     0.15900
C313        C  0.26162890  0.22280981  0.33228215     0.37600
C314        C  0.26444170  0.13431730  0.15160073     0.37500
N315        N  0.26055865  0.24090390  0.36845509    -0.42800
N316        N  0.26377677  0.11509651  0.11438750    -0.42800
C317        C  0.50541661  0.47945159  0.21065515     0.00800
C318        C  0.51729460  0.43478326  0.21928006    -0.11100
C319        C  0.52289381  0.40798272  0.26688034     0.03100
C320        C  0.51866938  0.42720789  0.30938438     0.00700
C321        C  0.01040472  0.46411703  0.30967373    -0.11000
C322        C  0.50434539  0.50053150  0.25549981     0.02900
H323        H  0.51895711  0.41850924  0.18566522     0.15900
H324        H  0.00613331  0.47995301  0.34039414     0.15900
C325        C  0.98239786  0.03894284  0.24207934     0.37600
C326        C  0.52844921  0.35953076  0.26524109     0.37500
N327        N  0.97426528  0.07678582  0.23554071    -0.42800
N328        N  0.53247723  0.32103407  0.26048978    -0.42800
C329        C  0.50234397  0.29114252  0.40590351     0.00800
C330        C  0.47851851  0.26630569  0.36881883    -0.11100
C331        C  0.47072965  0.22507736  0.38542756     0.03100
C332        C  0.48733670  0.20705707  0.44020822     0.00700
C333        C  0.51146161  0.23194973  0.47702746    -0.11000
C334        C  0.51867645  0.27393372  0.46063246     0.02900
H335        H  0.46517529  0.28048339  0.32720574     0.15900
H336        H  0.01386633  0.21949082  0.52843725     0.15900
C337        C  0.02856007  0.30254393  0.50932627     0.37600
C338        C  0.44505629  0.20312774  0.34598000     0.37500
N339        N  0.04146528  0.32948500  0.54250785    -0.42800
N340        N  0.42437336  0.18535321  0.31508339    -0.42800
C341        C  0.05168522  0.33599179  0.40557523     0.00800
C342        C  0.07105338  0.37145084  0.43267435    -0.11100
C343        C  0.10011059  0.36454812  0.45405044     0.03100
C344        C  0.11066492  0.32125921  0.44935609     0.00700
C345        C  0.09132553  0.28511580  0.42508013    -0.11000
C346        C  0.06226702  0.29202060  0.40301227     0.02900
H347        H  0.06330178  0.40519491  0.43589739     0.15900
H348        H  0.09872406  0.25136832  0.42087364     0.15900
C349        C  0.04422409  0.25450854  0.37268230     0.37600
C350        C  0.11857449  0.40275348  0.47898540     0.37500
N351        N  0.03077002  0.22364744  0.34775892    -0.42800
N352        N  0.13428975  0.43245810  0.49886198    -0.42800
C353        C  0.25598149  0.37769268  0.68409045     0.00800
C354        C  0.25599601  0.36719827  0.73428576    -0.11100
C355        C  0.26177658  0.40170538  0.77377490     0.03100
C356        C  0.26801918  0.44734539  0.76370319     0.00700
C357        C  0.27159102  0.45581245  0.71695820    -0.11000
C358        C  0.26574087  0.42156315  0.67745947     0.02900
H359        H  0.24913907  0.33340210  0.74053087     0.15900
H360        H  0.27599034  0.49070509  0.70817360     0.15900
C361        C  0.26864499  0.43296422  0.62895750     0.37600
C362        C  0.25880484  0.39066817  0.82220807     0.37500
N363        N  0.27115155  0.44177772  0.59023537    -0.42800
N364        N  0.25700565  0.38180986  0.86170907    -0.42800
C365        C  0.16525304  0.16085223  0.21179657     0.00800
C366        C  0.16039430  0.13829600  0.25231951    -0.11100
C367        C  0.16571361  0.15996545  0.30172370     0.03100
C368        C  0.17707155  0.20485671  0.31237354     0.00700
C369        C  0.17967362  0.22904022  0.27044788    -0.11000
C370        C  0.17357668  0.20798645  0.22043712     0.02900
H371        H  0.15621453  0.10192297  0.24969727     0.15900
H372        H  0.18768540  0.26406195  0.27776986     0.15900
C373        C  0.17852292  0.23523130  0.18148329     0.37600
C374        C  0.16257325  0.13317582  0.34345626     0.37500
N375        N  0.18262431  0.25871297  0.15153070    -0.42800
N376        N  0.16011593  0.11170617  0.37694159    -0.42800
C377        C  0.19726521  0.12252705  0.57757901     0.00800
C378        C  0.19271046  0.08779778  0.53945921    -0.11100
C379        C  0.18421078  0.04348546  0.54583957     0.03100
C380        C  0.17899314  0.03268999  0.59077405     0.00700
C381        C  0.18375428  0.06768801  0.62940590    -0.11000
C382        C  0.19228418  0.11246902  0.62260830     0.02900
H383        H  0.19597180  0.09540871  0.50408975     0.15900
H384        H  0.18208361  0.05969952  0.66635821     0.15900
C385        C  0.19435212  0.14800534  0.66043109     0.37600
C386        C  0.18247946  0.00976454  0.50635687     0.37500
N387        N  0.19553401  0.17679645  0.69011877    -0.42800
N388        N  0.17978249  0.48531720  0.47529373    -0.42800
C389        C  0.25544873  0.01873613  0.39621922     0.00800
C390        C  0.25173895  0.47392986  0.36622016    -0.11100
C391        C  0.24320505  0.43221644  0.38072670     0.03100
C392        C  0.23622907  0.43098633  0.42442040     0.00700
C393        C  0.23905056  0.47168058  0.45366628    -0.11000
C394        C  0.24770978  0.51301863  0.43938662     0.02900
H395        H  0.26808370  0.97829640  0.34683647     0.15900
H396        H  0.23417040  0.47146797  0.48760164     0.15900
C397        C  0.24146802  0.05839492  0.45904003     0.37600
C398        C  0.23965128  0.39233341  0.34716527     0.37500
N399        N  0.23800107  0.09195950  0.47728842    -0.42800
N400        N  0.23665269  0.36042976  0.32011070    -0.42800
C401        C  0.32072940  0.25262604  0.57535767     0.00800
C402        C  0.33189690  0.23981313  0.54059418    -0.11100
C403        C  0.36102678  0.24133463  0.55938899     0.03100
C404        C  0.37958326  0.25529828  0.61401383     0.00700
C405        C  0.36825706  0.27236829  0.64641786    -0.11000
C406        C  0.33929491  0.27060870  0.62820480     0.02900
H407        H  0.31789582  0.22825091  0.49883270     0.15900
H408        H  0.38202316  0.28771271  0.68587844     0.15900
C409        C  0.32922285  0.28956276  0.66378294     0.37600
C410        C  0.37147332  0.22832105  0.52208925     0.37500
N411        N  0.32124330  0.30489844  0.69236400    -0.42800
N412        N  0.37976308  0.21799680  0.49199864    -0.42800
C413        C  0.42726856  0.13724398  0.81103234     0.00800
C414        C  0.42635085  0.11272047  0.76676613    -0.11100
C415        C  0.42075299  0.13549967  0.71701151     0.03100
C416        C  0.41629270  0.18396892  0.71106233     0.00700
C417        C  0.41399744  0.20730655  0.75319060    -0.11000
C418        C  0.41841038  0.18392790  0.80212586     0.02900
H419        H  0.43214948  0.07630030  0.77250735     0.15900
H420        H  0.41238515  0.24453935  0.75174735     0.15900
C421        C  0.41484812  0.20891676  0.84331710     0.37600
C422        C  0.42230093  0.10863137  0.67491643     0.37500
N423        N  0.91901704  0.22633190  0.89782905    -0.42800
N424        N  0.42332520  0.08589820  0.64174588    -0.42800
C425        C  0.42466160  0.31035520  0.59282131     0.00800
C426        C  0.41898217  0.35002925  0.61443592    -0.11100
C427        C  0.42597618  0.39425630  0.60282118     0.03100
C428        C  0.43882663  0.39918763  0.56853241     0.00700
C429        C  0.44186687  0.35948196  0.54290419    -0.11000
C430        C  0.43491574  0.31565209  0.55453143     0.02900
H431        H  0.41112929  0.34623642  0.64394898     0.15900
H432        H  0.45048343  0.36220919  0.51455024     0.15900
C433        C  0.43971423  0.27632874  0.52832106     0.37600
C434        C  0.42082644  0.43320515  0.62885781     0.37500
N435        N  0.44367322  0.24501147  0.50729495    -0.42800
N436        N  0.41657883  0.46422147  0.64987590    -0.42800
N437        N  0.40971259  0.74365809  0.64555573    -0.02500
C438        C  0.42205521  0.70387078  0.67485209     0.00100
C439        C  0.44737909  0.69659412  0.67592582    -0.22800
C440        C  0.45126862  0.73259891  0.64747566    -0.23000
C441        C  0.42790522  0.76098564  0.62883538     0.00000
H442        H  0.46223104  0.66961926  0.69879132     0.13800
H443        H  0.46990909  0.73898663  0.64363460     0.13800
Zn444      Zn  0.18260955  0.74376974  0.46597706     1.49700
Zn445      Zn  0.24065705  0.75749358  0.57820510     1.49400
Zn446      Zn  0.23387828  0.78460241  0.45530221     1.49100
Zn447      Zn  0.20403095  0.84592248  0.50739454     1.49500
O448        O  0.21553848  0.78302959  0.50213068    -1.83100
O449        O  0.18662492  0.68803330  0.51286323    -0.73800
O450        O  0.27889639  0.74837285  0.58440823    -0.73600
O451        O  0.21104704  0.74950913  0.38309201    -0.73100
O452        O  0.22554815  0.69603347  0.59410014    -0.73800
O453        O  0.17523625  0.72088302  0.39134776    -0.73400
O454        O  0.27423273  0.76266045  0.50023169    -0.74000
O455        O  0.21610505  0.89223121  0.46669186    -0.73400
O456        O  0.24982605  0.80500584  0.63897208    -0.74100
O457        O  0.23923113  0.85004340  0.43527381    -0.73500
O458        O  0.22729021  0.86663431  0.58670854    -0.74000
O459        O  0.16107747  0.84949539  0.47933221    -0.73900
O460        O  0.14801108  0.77754659  0.45288139    -0.73700
C461        C  0.20371140  0.67313464  0.56163770     0.78100
C462        C  0.28952446  0.75352714  0.55210014     0.78600
C463        C  0.18834786  0.72622370  0.36377638     0.77600
C464        C  0.23150430  0.88930027  0.44340872     0.77900
C465        C  0.24455730  0.84835167  0.63373229     0.79100
C466        C  0.14190328  0.81875009  0.45876528     0.78100
N467        N  0.02417002  0.85719854  0.38625408    -0.02500
C468        C  0.50955297  0.89369611  0.32979439     0.00100
C469        C  0.48589264  0.90260425  0.33454633    -0.22800
C470        C  0.48190054  0.86522257  0.36095983    -0.23000
C471        C  0.50352346  0.83478965  0.37260841     0.00000
H472        H  0.47252382  0.93265894  0.31834241     0.13800
H473        H  0.46471074  0.85964558  0.36963409     0.13800
N474        N  0.27079732  0.57929928  0.35309755    -0.02500
C475        C  0.25800302  0.61848050  0.32314496     0.00100
C476        C  0.23139496  0.62287285  0.31673152    -0.22800
C477        C  0.22708434  0.58560400  0.34290543    -0.23000
C478        C  0.25162558  0.55974711  0.36578663     0.00000
H479        H  0.21676511  0.65034094  0.29416881     0.13800
H480        H  0.20801177  0.57759870  0.34457855     0.13800
Zn481      Zn  0.44851281  0.54952140  0.55523688     1.49700
Zn482      Zn  0.47893704  0.98931084  0.50491604     1.49400
Zn483      Zn  0.44033044  0.58128674  0.43334756     1.49100
Zn484      Zn  0.50007112  0.58946376  0.54218177     1.49500
O485        O  0.46603376  0.55255210  0.50627445    -1.83100
O486        O  0.44660170  0.97938206  0.58405726    -0.73800
O487        O  0.45834762  0.97362043  0.42205400    -0.73600
O488        O  0.40187704  0.58802928  0.42758717    -0.73100
O489        O  0.46532234  0.94094036  0.54052824    -0.73800
O490        O  0.40733791  0.57129417  0.51196611    -0.73400
O491        O  0.43195153  0.53841134  0.36964440    -0.74000
O492        O  0.49846100  0.64466078  0.49601067    -0.73400
O493        O  0.02508358  0.97569187  0.54793561    -0.74100
O494        O  0.45651441  0.64196823  0.42027345    -0.73500
O495        O  0.03433419  0.55362730  0.56818364    -0.74000
O496        O  0.50731464  0.61246932  0.61579390    -0.73900
O497        O  0.47239312  0.58514918  0.62821794    -0.73700
C498        C  0.45245283  0.94132002  0.56911992     0.78100
C499        C  0.44149483  0.99597023  0.37754827     0.78600
C500        C  0.39161817  0.58135289  0.46036980     0.77600
C501        C  0.48030077  0.66145351  0.44907550     0.77900
C502        C  0.03923002  0.51388640  0.55591299     0.79100
C503        C  0.49510604  0.60840494  0.64517120     0.78100
N504        N  0.16066475  0.96950846  0.63198564    -0.02500
C505        C  0.17251908  0.92822568  0.65669533     0.05300
C506        C  0.19164180  0.91432755  0.64056132    -0.22800
C507        C  0.19055097  0.45363271  0.60777473    -0.23000
C508        C  0.17292368  0.48999623  0.60319689     0.00000
H509        H  0.20501068  0.88423699  0.65606191     0.13800
H510        H  0.20761441  0.45442808  0.59793266     0.13800
N511        N  0.41275041  0.85703326  0.16095192    -0.02500
C512        C  0.42574652  0.89580387  0.18893347     0.00100
C513        C  0.45038343  0.90228460  0.18719596    -0.22800
C514        C  0.45341345  0.86641110  0.15873765    -0.23000
C515        C  0.43016439  0.83860250  0.14281573     0.00000
H516        H  0.46478480  0.93003770  0.20604936     0.13800
H517        H  0.47100273  0.86068116  0.15119012     0.13800
Zn518      Zn  0.23067288  0.85992284  0.00083743     1.49700
Zn519      Zn  0.25243008  0.75460610  0.04207030     1.49400
Zn520      Zn  0.20192357  0.79606434  0.05720158     1.49100
Zn521      Zn  0.19381051  0.77064371  0.93653707     1.49500
O522        O  0.21953748  0.79598617  0.00895411    -1.83100
O523        O  0.27442986  0.86493865  0.04196515    -0.73800
O524        O  0.25833131  0.72382477  0.11245960    -0.73600
O525        O  0.19698478  0.86136817  0.07778852    -0.73100
O526        O  0.28657900  0.79100207  0.06479081    -0.73800
O527        O  0.21254329  0.90564026  0.03132218    -0.73400
O528        O  0.22603430  0.75696394  0.12833218    -0.74000
O529        O  0.15454095  0.76358927  0.92830731    -0.73400
O530        O  0.25287567  0.70557674  0.99168580    -0.74100
O531        O  0.16087112  0.77484940  0.01364251    -0.73500
O532        O  0.21004239  0.71261619  0.91901354    -0.74000
O533        O  0.18892946  0.81613849  0.87710995    -0.73900
O534        O  0.21501503  0.87720233  0.91804254    -0.73700
C535        C  0.29323088  0.83301610  0.06471894     0.78100
C536        C  0.24715336  0.72966082  0.14326220     0.78600
C537        C  0.20018515  0.90117377  0.06084966     0.77600
C538        C  0.14473273  0.76680968  0.96214939     0.77900
C539        C  0.23433383  0.69300175  0.94385471     0.79100
C540        C  0.19818809  0.85590475  0.87412585     0.78100
N541        N  0.02439984  0.74830692  0.86871117    -0.02500
C542        C  0.51081245  0.71896890  0.82522257     0.00100
C543        C  0.48420421  0.71803309  0.81972510    -0.22800
C544        C  0.48092085  0.75686574  0.84349882    -0.23000
C545        C  0.50586600  0.78052046  0.86359476     0.00000
H546        H  0.46868348  0.69200802  0.79889948     0.13800
H547        H  0.46223014  0.76719803  0.84544634     0.13800
N548        N  0.27350722  0.01523935  0.82631968    -0.02500
C549        C  0.25895357  0.98514809  0.78440888     0.00100
C550        C  0.23084736  0.99644732  0.75687339    -0.22800
C551        C  0.22634634  0.53727736  0.77832032    -0.23000
C552        C  0.25182096  0.54531228  0.82481088     0.00000
H553        H  0.21499704  0.98052400  0.72034408     0.13800
H554        H  0.20680435  0.55623499  0.76467065     0.13800
N555        N  0.15955895  0.59503193  0.14010155    -0.02500
C556        C  0.17236318  0.63410296  0.16835936     0.00100
C557        C  0.19730453  0.64020457  0.16719818    -0.22800
C558        C  0.20027409  0.60454620  0.13836100    -0.23000
C559        C  0.17705018  0.57710186  0.12240381     0.00000
H560        H  0.21259509  0.66634262  0.18860516     0.13800
H561        H  0.21819613  0.59758566  0.13238833     0.13800
Zn562      Zn  0.44689440  0.55924750  0.05653885     1.49700
Zn563      Zn  0.49902958  0.01372351  0.03997102     1.49400
Zn564      Zn  0.44210714  0.52277229  0.93963905     1.49100
Zn565      Zn  0.47799397  0.61533502  0.99904705     1.49500
O566        O  0.46592708  0.55313754  0.01102059    -1.83100
O567        O  0.47057108  0.52610519  0.13382185    -0.73800
O568        O  0.49890908  0.95780485  0.99854667    -0.73600
O569        O  0.40459383  0.50691358  0.93360781    -0.73100
O570        O  0.50523887  0.99312519  0.11374446    -0.73800
O571        O  0.40630501  0.53572868  0.01019933    -0.73400
O572        O  0.46193545  0.96967303  0.91567515    -0.74000
O573        O  0.45707787  0.63087538  0.91521525    -0.73400
O574        O  0.03467396  0.53153837  0.07169764    -0.74100
O575        O  0.43257268  0.56773691  0.87585762    -0.73500
O576        O  0.02278531  0.60245919  0.03475651    -0.74000
O577        O  0.46492499  0.66629360  0.03428394    -0.73900
O578        O  0.44230335  0.62736691  0.07084045    -0.73700
C579        C  0.49332264  0.00150043  0.14260336     0.78100
C580        C  0.48379570  0.94598471  0.94853085     0.78600
C581        C  0.39280393  0.51708590  0.96252568     0.77600
C582        C  0.43956973  0.60916291  0.87219553     0.77900
C583        C  0.04139332  0.57099126  0.06139752     0.79100
C584        C  0.45027134  0.66582045  0.05955362     0.78100
C585        C  0.13011360  0.58449354  0.11774462     0.00800
C586        C  0.12070448  0.56299724  0.15168240    -0.11100
C587        C  0.09199695  0.56053806  0.13493510     0.03100
C588        C  0.07181702  0.57842391  0.08193090     0.00700
C589        C  0.08117117  0.59625641  0.04578615    -0.11000
C590        C  0.11010558  0.59806179  0.06277592     0.02900
H591        H  0.13575945  0.54751190  0.19116839     0.15900
H592        H  0.06591529  0.60680835  0.00361824     0.15900
C593        C  0.11869606  0.61075169  0.02207255     0.37600
C594        C  0.08394063  0.53984401  0.17357984     0.37500
N595        N  0.12534776  0.62034145  0.98888894    -0.42800
N596        N  0.07289550  0.02119285  0.20826732    -0.42800
C597        C  0.30226485  0.51515039  0.86534652     0.00800
C598        C  0.31741864  0.47309884  0.88509100    -0.11100
C599        C  0.34697713  0.47224492  0.91702132     0.03100
C600        C  0.36173163  0.51402936  0.93534938     0.00700
C601        C  0.34668916  0.55586458  0.91699832    -0.11000
C602        C  0.31773189  0.55676309  0.87968818     0.02900
H603        H  0.30868238  0.94309001  0.87565968     0.15900
H604        H  0.35817574  0.58813757  0.92729398     0.15900
C605        C  0.30586767  0.60001371  0.85059370     0.37600
C606        C  0.36426156  0.93246987  0.92839487     0.37500
N607        N  0.29719029  0.63496622  0.82703482    -0.42800
N608        N  0.37644732  0.89758276  0.93960826    -0.42800
C609        C  0.50889161  0.82589956  0.89007822     0.00800
C610        C  0.02401001  0.83404271  0.95088421    -0.11100
C611        C  0.01785500  0.87429363  0.97141203     0.03100
C612        C  0.49254371  0.90444170  0.92901091     0.00700
C613        C  0.49080953  0.90535994  0.87618706    -0.11000
C614        C  0.49878448  0.86661516  0.85659979     0.02900
H615        H  0.04218042  0.81281046  0.97811836     0.15900
H616        H  0.48268194  0.93609979  0.84967344     0.15900
C617        C  0.49423333  0.86812362  0.80020039     0.37600
C618        C  0.03797851  0.88764078  0.02701728     0.37500
N619        N  0.49038731  0.86948402  0.75485522    -0.42800
N620        N  0.05429271  0.89841203  0.07144701    -0.42800
C621        C  0.11359923  0.76368398  0.94003472     0.00800
C622        C  0.09529796  0.78568783  0.88856555    -0.11100
C623        C  0.06582640  0.78398053  0.86620455     0.03100
C624        C  0.05418028  0.75730437  0.89344538     0.00700
C625        C  0.07227000  0.73695640  0.94554776    -0.11000
C626        C  0.10157000  0.74124063  0.96968235     0.02900
H627        H  0.10405022  0.80523197  0.86641306     0.15900
H628        H  0.06328564  0.71755824  0.96738884     0.15900
C629        C  0.11852559  0.72163778  0.02456410     0.37600
C630        C  0.04798415  0.81033999  0.81608037     0.37500
N631        N  0.13149458  0.70555788  0.06874639    -0.42800
N632        N  0.03363237  0.83150775  0.77587920    -0.42800
C633        C  0.25408411  0.58471849  0.86102140     0.00800
C634        C  0.24192017  0.62696160  0.83349908    -0.11100
C635        C  0.23612709  0.66254795  0.86017963     0.03100
C636        C  0.24179310  0.65632265  0.91572890     0.00700
C637        C  0.25597540  0.61551543  0.94501389    -0.11000
C638        C  0.26212168  0.57971765  0.91807854     0.02900
H639        H  0.23624252  0.63173478  0.78995283     0.15900
H640        H  0.26144156  0.61098244  0.98843842     0.15900
C641        C  0.27537408  0.53769525  0.94897219     0.37600
C642        C  0.22555844  0.70585530  0.83002132     0.37500
N643        N  0.29232425  0.00857635  0.97548909    -0.42800
N644        N  0.21764168  0.74054230  0.80544676    -0.42800
C645        C  0.18870773  0.94297627  0.07491927     0.00800
C646        C  0.18789258  0.94414023  0.12552446    -0.11100
C647        C  0.17937969  0.98446768  0.14171717     0.03100
C648        C  0.17588285  0.53066278  0.09910656     0.00700
C649        C  0.17569009  0.52834255  0.04786362    -0.11000
C650        C  0.17798341  0.98180205  0.03813521     0.02900
H651        H  0.19503830  0.91420674  0.15358994     0.15900
H652        H  0.17077948  0.55925975  0.02162772     0.15900
C653        C  0.17377466  0.98084287  0.98209852     0.37600
C654        C  0.18063654  0.98484773  0.19553110     0.37500
N655        N  0.16967998  0.98010389  0.93664956    -0.42800
N656        N  0.18150804  0.98505996  0.23854600    -0.42800
C657        C  0.38276740  0.85102436  0.13641061     0.00800
C658        C  0.37190890  0.82221746  0.16272421    -0.11100
C659        C  0.34284897  0.81767862  0.14130230     0.03100
C660        C  0.32382623  0.84299156  0.09257189     0.00700
C661        C  0.33471955  0.87450349  0.06840217    -0.11000
C662        C  0.36398179  0.87895600  0.09041598     0.02900
H663        H  0.38612150  0.80426138  0.20105142     0.15900
H664        H  0.32047985  0.89494341  0.03192296     0.15900
C665        C  0.37458384  0.91422238  0.06765940     0.37600
C666        C  0.33318083  0.78766792  0.17133181     0.37500
N667        N  0.38356557  0.94320321  0.05120299    -0.42800
N668        N  0.32550108  0.76361262  0.19545131    -0.42800
C669        C  0.42799168  0.79380904  0.11385781     0.00800
C670        C  0.43492561  0.79474309  0.07044970    -0.11100
C671        C  0.44253474  0.75440107  0.05265313     0.03100
C672        C  0.44199794  0.71047234  0.07619274     0.00700
C673        C  0.43346996  0.70924801  0.11742951    -0.11000
C674        C  0.42741219  0.75004691  0.13738556     0.02900
H675        H  0.43643010  0.82796523  0.05292726     0.15900
H676        H  0.43322004  0.67632965  0.13689983     0.15900
C677        C  0.42409247  0.74582470  0.18632529     0.37600
C678        C  0.45234158  0.76010093  0.01243807     0.37500
N679        N  0.42200090  0.74106885  0.22616353    -0.42800
N680        N  0.98259135  0.75059604  0.03112415    -0.42800
C681        C  0.17315944  0.90922722  0.70809441     0.00800
C682        C  0.17775756  0.94002077  0.75055763    -0.11100
C683        C  0.18741393  0.92410835  0.80555352     0.03100
C684        C  0.18919540  0.87607024  0.81754576     0.00700
C685        C  0.18191057  0.84537213  0.77364358    -0.11000
C686        C  0.17524423  0.86125880  0.72017494     0.02900
H687        H  0.17628315  0.97694871  0.74184321     0.15900
H688        H  0.18270356  0.80845589  0.78162507     0.15900
C689        C  0.17184550  0.82740378  0.67944066     0.37600
C690        C  0.19694567  0.95791259  0.84868760     0.37500
N691        N  0.16967883  0.80004539  0.64742851    -0.42800
N692        N  0.20531511  0.98546381  0.88284109    -0.42800
C693        C  0.06881397  0.50255151  0.57301951     0.00800
C694        C  0.07948375  0.51367095  0.53703095    -0.11100
C695        C  0.10843819  0.51002489  0.55450016     0.03100
C696        C  0.12771563  0.49397269  0.60975307     0.00700
C697        C  0.11649074  0.48612069  0.64620865    -0.11000
C698        C  0.08761585  0.48969368  0.62836239     0.02900
H699        H  0.06507500  0.52625693  0.49514998     0.15900
H700        H  0.12994150  0.47673956  0.68909613     0.15900
C701        C  0.07765618  0.47983439  0.66775501     0.37600
C702        C  0.11656379  0.52418601  0.51365653     0.37500
N703        N  0.06958228  0.47179701  0.69911953    -0.42800
N704        N  0.12130932  0.53647726  0.47861103    -0.42800
C705        C  0.50728373  0.63285058  0.69911750     0.00800
C706        C  0.00439525  0.60338664  0.75990090    -0.11100
C707        C  0.01149121  0.62695088  0.80932490     0.03100
C708        C  0.51860040  0.68618726  0.79336510     0.00700
C709        C  0.52324093  0.70435454  0.75072951    -0.11000
C710        C  0.51830670  0.67807150  0.70451346     0.02900
H711        H  0.99653796  0.56835424  0.75528262     0.15900
H712        H  0.52726347  0.74065210  0.74958051     0.15900
C713        C  0.52158466  0.70071372  0.66049835     0.37600
C714        C  0.00907803  0.60254945  0.85335668     0.37500
N715        N  0.52427166  0.71916471  0.62549975    -0.42800
N716        N  0.00711416  0.58298741  0.88858248    -0.42800
C717        C  0.41841993  0.92416271  0.22534584     0.00800
C718        C  0.41570040  0.90188328  0.26853696    -0.11100
C719        C  0.42080353  0.92578379  0.31676408     0.03100
C720        C  0.42936735  0.97255780  0.32279782     0.00700
C721        C  0.42788558  0.99636476  0.27625821    -0.11000
C722        C  0.42228532  0.97270286  0.22775496     0.02900
H723        H  0.41250282  0.86485127  0.26744377     0.15900
H724        H  0.42820010  0.53237132  0.26917580     0.15900
C725        C  0.42188314  0.99864501  0.18181197     0.37600
C726        C  0.41861833  0.90091287  0.36075110     0.37500
N727        N  0.42127719  0.01968917  0.14487066    -0.42800
N728        N  0.41703643  0.88087365  0.39611795    -0.42800
C729        C  0.36038882  0.57988525  0.43564800     0.00800
C730        C  0.34514423  0.55680971  0.38500395    -0.11100
C731        C  0.31582949  0.55200917  0.36019686     0.03100
C732        C  0.30092137  0.57329448  0.38377083     0.00700
C733        C  0.31600897  0.59464722  0.43531971    -0.11000
C734        C  0.34554561  0.59664245  0.46227857     0.02900
H735        H  0.35630775  0.54103057  0.36562906     0.15900
H736        H  0.30451605  0.61029400  0.45407914     0.15900
C737        C  0.35976139  0.61586295  0.51694347     0.37600
C738        C  0.30160416  0.52354341  0.31206331     0.37500
N739        N  0.37057795  0.63067603  0.56121944    -0.42800
N740        N  0.29026715  0.50030359  0.27374916    -0.42800
C741        C  0.26739660  0.64927406  0.29130488     0.00800
C742        C  0.27125192  0.62996249  0.24896511    -0.11100
C743        C  0.26761814  0.65671876  0.20263938     0.03100
C744        C  0.25864934  0.70347315  0.19709088     0.00700
C745        C  0.25807018  0.72404585  0.24242449    -0.11000
C746        C  0.26292288  0.69756503  0.28967314     0.02900
H747        H  0.27360393  0.59299997  0.24822819     0.15900
H748        H  0.25237280  0.76033214  0.23975646     0.15900
C749        C  0.26114772  0.72002989  0.33436472     0.37600
C750        C  0.26959785  0.63351893  0.15846874     0.37500
N751        N  0.26002463  0.73819323  0.37042736    -0.42800
N752        N  0.27100990  0.61456318  0.12311917    -0.42800
C753        C  0.50521498  0.97852664  0.19837112     0.00800
C754        C  0.51621966  0.93337904  0.20495533    -0.11100
C755        C  0.52180608  0.90578009  0.25188789     0.03100
C756        C  0.51709993  0.92398880  0.29419180     0.00700
C757        C  0.00215663  0.97047623  0.30274011    -0.11000
C758        C  0.50465925  0.99886485  0.24404099     0.02900
H759        H  0.51779347  0.91788321  0.17084519     0.15900
H760        H  0.00152944  0.99061368  0.33495229     0.15900
C761        C  0.99191619  0.53504325  0.25259269     0.37600
C762        C  0.52835994  0.85764297  0.25072816     0.37500
N763        N  0.98266374  0.57208740  0.24665444    -0.42800
N764        N  0.53348551  0.81928104  0.24788174    -0.42800
C765        C  0.50292316  0.78766929  0.39385384     0.00800
C766        C  0.48658328  0.75444454  0.35498869    -0.11100
C767        C  0.47953662  0.71267430  0.37195572     0.03100
C768        C  0.48760715  0.70460766  0.42865422     0.00700
C769        C  0.50401184  0.73796414  0.46753497    -0.11000
C770        C  0.51143045  0.77935184  0.45052356     0.02900
H771        H  0.47902611  0.76153939  0.31100931     0.15900
H772        H  0.02802095  0.71368961  0.53271701     0.15900
C773        C  0.04912830  0.79364907  0.52352096     0.37600
C774        C  0.46497565  0.67805558  0.33082459     0.37500
N775        N  0.06964354  0.80997920  0.55716443    -0.42800
N776        N  0.45354089  0.65002694  0.29810437    -0.42800
C777        C  0.05336127  0.84658996  0.40306340     0.00800
C778        C  0.07287787  0.88278638  0.42056727    -0.11100
C779        C  0.10135385  0.87506102  0.43791096     0.03100
C780        C  0.11161687  0.82972861  0.44031663     0.00700
C781        C  0.09201932  0.79322376  0.42313098    -0.11000
C782        C  0.06324575  0.80123249  0.40440949     0.02900
H783        H  0.06582878  0.91777824  0.42107166     0.15900
H784        H  0.09902557  0.75803212  0.42354922     0.15900
C785        C  0.04425665  0.76278700  0.38328143     0.37600
C786        C  0.11907084  0.91497260  0.45386435     0.37500
N787        N  0.02924751  0.73172023  0.36574236    -0.42800
N788        N  0.13218853  0.94831184  0.46677153    -0.42800
C789        C  0.25848658  0.87912252  0.68259233     0.00800
C790        C  0.25883896  0.86698182  0.73278005    -0.11100
C791        C  0.26380468  0.90065653  0.77272382     0.03100
C792        C  0.26938000  0.94693887  0.76356888     0.00700
C793        C  0.27310528  0.95711167  0.71733315    -0.11000
C794        C  0.26774092  0.92375963  0.67700917     0.02900
H795        H  0.25228051  0.83266734  0.73816149     0.15900
H796        H  0.27712819  0.99251763  0.70949646     0.15900
C797        C  0.27041115  0.93694412  0.62867728     0.37600
C798        C  0.26009948  0.88822210  0.82002468     0.37500
N799        N  0.27267572  0.94736648  0.59005544    -0.42800
N800        N  0.25738608  0.87829288  0.85825715    -0.42800
C801        C  0.16598121  0.66164882  0.20711906     0.00800
C802        C  0.16148818  0.63828807  0.24776937    -0.11100
C803        C  0.16625906  0.65977523  0.29717129     0.03100
C804        C  0.17711189  0.70509073  0.30810599     0.00700
C805        C  0.17911847  0.72990647  0.26586890    -0.11000
C806        C  0.17316394  0.70925738  0.21565506     0.02900
H807        H  0.15813583  0.60165079  0.24547387     0.15900
H808        H  0.18639263  0.76536138  0.27293629     0.15900
C809        C  0.17655283  0.73777546  0.17560502     0.37600
C810        C  0.16318362  0.63250557  0.33865805     0.37500
N811        N  0.17911649  0.76214035  0.14438163    -0.42800
N812        N  0.16076529  0.61053105  0.37186028    -0.42800
C813        C  0.19801297  0.62656835  0.57733910     0.00800
C814        C  0.19499210  0.59066660  0.54146610    -0.11100
C815        C  0.18594657  0.54692004  0.54806881     0.03100
C816        C  0.17904767  0.53807531  0.59109994     0.00700
C817        C  0.18191135  0.57419360  0.62711530    -0.11000
C818        C  0.19152144  0.61816520  0.62078249     0.02900
H819        H  0.19930436  0.59716102  0.50716900     0.15900
H820        H  0.17717902  0.56781311  0.66080832     0.15900
C821        C  0.19368256  0.65442787  0.65792880     0.37600
C822        C  0.18261627  0.51250184  0.50792573     0.37500
N823        N  0.19538780  0.68362108  0.68759207    -0.42800
N824        N  0.18191343  0.98368464  0.47442255    -0.42800
C825        C  0.25349692  0.51479166  0.39441143     0.00800
C826        C  0.26067761  0.97718637  0.37715716    -0.11100
C827        C  0.25411255  0.93429434  0.39316769     0.03100
C828        C  0.24141791  0.93278281  0.42802615     0.00700
C829        C  0.23881201  0.97438539  0.45083532    -0.11000
C830        C  0.24572852  0.01680511  0.43556891     0.02900
H831        H  0.25489606  0.47537067  0.33005098     0.15900
H832        H  0.23100193  0.97405014  0.48045261     0.15900
C833        C  0.24924491  0.55401678  0.46991621     0.37600
C834        C  0.25996986  0.89292430  0.37180165     0.37500
N835        N  0.25045701  0.58691086  0.49426576    -0.42800
N836        N  0.26498282  0.85981368  0.35506895    -0.42800
C837        C  0.32066615  0.75274802  0.57623909     0.00800
C838        C  0.33257682  0.74097852  0.54259386    -0.11100
C839        C  0.36182768  0.74150568  0.56353080     0.03100
C840        C  0.37984868  0.75324127  0.61942118     0.00700
C841        C  0.36787976  0.76922857  0.65118986    -0.11000
C842        C  0.33868899  0.76867610  0.63060264     0.02900
H843        H  0.31904567  0.73090334  0.49996131     0.15900
H844        H  0.38124303  0.78270922  0.69192237     0.15900
C845        C  0.32795741  0.78652479  0.66566413     0.37600
C846        C  0.37272815  0.72946391  0.52673626     0.37500
N847        N  0.31945292  0.80093492  0.69383507    -0.42800
N848        N  0.38090074  0.71957031  0.49634656    -0.42800
C849        C  0.42757248  0.63197246  0.81623168     0.00800
C850        C  0.42571346  0.60670308  0.77152039    -0.11100
C851        C  0.41951544  0.62884312  0.72082556     0.03100
C852        C  0.41525711  0.67744932  0.71417689     0.00700
C853        C  0.41395955  0.70151364  0.75693073    -0.11000
C854        C  0.41940824  0.67899951  0.80704160     0.02900
H855        H  0.43098105  0.57009481  0.77735243     0.15900
H856        H  0.41253252  0.73869365  0.75497505     0.15900
C857        C  0.41681192  0.70509742  0.84858481     0.37600
C858        C  0.42039937  0.60130729  0.67838805     0.37500
N859        N  0.92092165  0.71471258  0.90284769    -0.42800
N860        N  0.42131215  0.57866330  0.64499211    -0.42800
C861        C  0.42722261  0.80770781  0.60455683     0.00800
C862        C  0.42523120  0.84683332  0.63197289    -0.11100
C863        C  0.43300830  0.89085912  0.62128463     0.03100
C864        C  0.44303417  0.89623553  0.58224057     0.00700
C865        C  0.44328690  0.85721558  0.55269041    -0.11000
C866        C  0.43556632  0.81360792  0.56334063     0.02900
H867        H  0.41942817  0.84252403  0.66452703     0.15900
H868        H  0.44999360  0.86041161  0.52136257     0.15900
C869        C  0.43743646  0.77506923  0.53250165     0.37600
C870        C  0.43174808  0.92905652  0.65311480     0.37500
N871        N  0.43909804  0.74440185  0.50774054    -0.42800
N872        N  0.43070275  0.95955197  0.67876173    -0.42800
N873        N  0.91137287  0.24452687  0.65486501    -0.02500
C874        C  0.92524073  0.20807435  0.68986748     0.00100
C875        C  0.95208048  0.20423609  0.69740014    -0.22800
C876        C  0.95550910  0.23919412  0.66713856    -0.23000
C877        C  0.93025156  0.26330138  0.64072922     0.00000
H878        H  0.96784125  0.17991395  0.72508906     0.13800
H879        H  0.97487957  0.24784400  0.66692687     0.13800
Zn880      Zn  0.68192556  0.23609906  0.46487652     1.49700
Zn881      Zn  0.73981701  0.24772551  0.57878351     1.49400
Zn882      Zn  0.73429100  0.27729628  0.45758228     1.49100
Zn883      Zn  0.70348576  0.33719190  0.50965407     1.49500
O884        O  0.71518131  0.27467852  0.50318481    -1.83100
O885        O  0.68505121  0.17939493  0.50968963    -0.73800
O886        O  0.77900132  0.23981296  0.58722197    -0.73600
O887        O  0.71242814  0.24188410  0.38504909    -0.73100
O888        O  0.72342977  0.18621871  0.59208712    -0.73800
O889        O  0.67514613  0.21565151  0.38983642    -0.73400
O890        O  0.77532727  0.25794809  0.50460942    -0.74000
O891        O  0.71516255  0.38449517  0.46887773    -0.73400
O892        O  0.74796099  0.29410598  0.64024105    -0.74100
O893        O  0.73797986  0.34297607  0.43599295    -0.73500
O894        O  0.72619004  0.35697771  0.58963117    -0.74000
O895        O  0.66056716  0.33981437  0.48154953    -0.73900
O896        O  0.64697547  0.26880952  0.45205576    -0.73700
C897        C  0.70144501  0.16399746  0.55862661     0.78100
C898        C  0.79026325  0.24751325  0.55629090     0.78600
C899        C  0.68911039  0.22019831  0.36385012     0.77600
C900        C  0.72991063  0.38193080  0.44415139     0.77900
C901        C  0.74287513  0.33749215  0.63628715     0.79100
C902        C  0.64112846  0.30962737  0.45971645     0.78100
N903        N  0.52292287  0.35579815  0.37142852    -0.02500
C904        C  0.00987420  0.38733079  0.35099955     0.00100
C905        C  0.98375790  0.39346500  0.34714414    -0.22800
C906        C  0.97867890  0.35546083  0.37114640    -0.23000
C907        C  0.00212308  0.32739111  0.39040958     0.00000
H908        H  0.96923529  0.42147493  0.32553469     0.13800
H909        H  0.95944194  0.34778243  0.37229030     0.13800
N910        N  0.77338879  0.08214762  0.35710869    -0.02500
C911        C  0.76084621  0.12191545  0.32821875     0.00100
C912        C  0.73443460  0.12650362  0.32276068    -0.22800
C913        C  0.73015864  0.08906909  0.34876165    -0.23000
C914        C  0.75444518  0.06273120  0.37053492     0.00000
H915        H  0.71980573  0.15395997  0.30054967     0.13800
H916        H  0.71123172  0.08110425  0.35088702     0.13800
Zn917      Zn  0.94926064  0.03909496  0.56873402     1.49700
Zn918      Zn  0.97701268  0.48916841  0.50421709     1.49400
Zn919      Zn  0.94420162  0.06589999  0.44784860     1.49100
Zn920      Zn  0.00155008  0.08014644  0.55995865     1.49500
O921        O  0.96882881  0.04083653  0.52370002    -1.83100
O922        O  0.94515199  0.47885448  0.58281582    -0.73800
O923        O  0.95450860  0.47399911  0.42236024    -0.73600
O924        O  0.90549569  0.07534626  0.43913344    -0.73100
O925        O  0.96500202  0.43994064  0.54179021    -0.73800
O926        O  0.90872787  0.06275345  0.52246765    -0.73400
O927        O  0.93651206  0.01894203  0.38729133    -0.74000
O928        O  0.99893996  0.13604601  0.51441528    -0.73400
O929        O  0.51924898  0.48222861  0.52786876    -0.74100
O930        O  0.96000916  0.12672107  0.43405296    -0.73500
O931        O  0.53553662  0.05599838  0.56826456    -0.74000
O932        O  0.00769819  0.10180051  0.63300157    -0.73900
O933        O  0.97183651  0.07417111  0.64194527    -0.73700
C934        C  0.95168382  0.44063581  0.56950853     0.78100
C935        C  0.93846821  0.49666482  0.37770930     0.78600
C936        C  0.89416293  0.07204043  0.47038996     0.77600
C937        C  0.98196862  0.14995353  0.46517041     0.77900
C938        C  0.54162712  0.01498736  0.56230161     0.79100
C939        C  0.99459064  0.09738421  0.66059540     0.78100
N940        N  0.65707363  0.47052239  0.62903866    -0.02500
C941        C  0.66719406  0.42762384  0.65267882     0.05300
C942        C  0.68771673  0.41299572  0.64040060    -0.22800
C943        C  0.69057216  0.94512621  0.61001982    -0.23000
C944        C  0.67248106  0.98041790  0.60627516     0.00000
H945        H  0.70086923  0.38254602  0.65749063     0.13800
H946        H  0.70661046  0.94682995  0.59745206     0.13800
N947        N  0.91344824  0.34884550  0.17194474    -0.02500
C948        C  0.92553629  0.38806462  0.19990141     0.00100
C949        C  0.95202138  0.39255276  0.20594442    -0.22800
C950        C  0.95705339  0.35523424  0.18214274    -0.23000
C951        C  0.93313754  0.32853402  0.16110201     0.00000
H952        H  0.96621858  0.41990675  0.22699083     0.13800
H953        H  0.97619795  0.34814229  0.18036532     0.13800
Zn954      Zn  0.73147336  0.35746573  0.99954343     1.49700
Zn955      Zn  0.75051064  0.25134319  0.04069325     1.49400
Zn956      Zn  0.70166209  0.29781005  0.05779708     1.49100
Zn957      Zn  0.69222883  0.27047913  0.93666488     1.49500
O958        O  0.71878948  0.29507520  0.00865369    -1.83100
O959        O  0.77537678  0.35917799  0.04041189    -0.73800
O960        O  0.75670711  0.22285799  0.11215524    -0.73600
O961        O  0.69858698  0.36439800  0.07752438    -0.73100
O962        O  0.78557998  0.28464560  0.06259005    -0.73800
O963        O  0.71537109  0.40576380  0.03091582    -0.73400
O964        O  0.72626577  0.25966804  0.13019953    -0.74000
O965        O  0.65363021  0.26598813  0.92994200    -0.73400
O966        O  0.74903876  0.20065308  0.99043474    -0.74100
O967        O  0.65977962  0.27840461  0.01492319    -0.73500
O968        O  0.70614272  0.21050095  0.91897466    -0.74000
O969        O  0.68710377  0.31506001  0.87609434    -0.73900
O970        O  0.71493339  0.37451870  0.91630077    -0.73700
C971        C  0.79333534  0.32605316  0.06317252     0.78100
C972        C  0.74675376  0.23104182  0.14453959     0.78600
C973        C  0.70311508  0.40334499  0.06074383     0.77600
C974        C  0.64367397  0.27053574  0.96328118     0.77900
C975        C  0.72975003  0.18885040  0.94293296     0.79100
C976        C  0.69691664  0.35417944  0.87261351     0.78100
N977        N  0.52295177  0.25625065  0.85839951    -0.02500
C978        C  0.01420005  0.20096300  0.84926724     0.00100
C979        C  0.98975753  0.19688114  0.85287036    -0.22800
C980        C  0.98699124  0.23582109  0.87707177    -0.23000
C981        C  0.00975556  0.26286291  0.88747466     0.00000
H982        H  0.97463941  0.16962191  0.83615929     0.13800
H983        H  0.96968306  0.24479241  0.88423217     0.13800
N984        N  0.77394004  0.50109403  0.83309721    -0.02500
C985        C  0.75992063  0.47322161  0.78849883     0.00100
C986        C  0.73246520  0.48753089  0.75716407    -0.22800
C987        C  0.72080380  0.02708308  0.78131428    -0.23000
C988        C  0.74647344  0.03898033  0.82497393     0.00000
H989        H  0.71708458  0.47304370  0.71919078     0.13800
H990        H  0.70059160  0.04354170  0.76850147     0.13800
N991        N  0.66181506  0.09066859  0.14048940    -0.02500
C992        C  0.67537089  0.12847152  0.17029545     0.00100
C993        C  0.70101279  0.13261935  0.17172113    -0.22800
C994        C  0.70369745  0.09660354  0.14280678    -0.23000
C995        C  0.67939923  0.07119714  0.12390159     0.00000
H996        H  0.71679356  0.15749078  0.19504503     0.13800
H997        H  0.72217328  0.08797085  0.13923963     0.13800
Zn998      Zn  0.94228482  0.05301271  0.05535801     1.49700
Zn999      Zn  0.00080453  0.49825721  0.05776520     1.49400
Zn1000     Zn  0.94070647  0.01812456  0.94152611     1.49100
Zn1001     Zn  0.97697323  0.10840884  0.00683812     1.49500
O1002       O  0.96356248  0.04645423  0.01457289    -1.83100
O1003       O  0.96130558  0.01439816  0.12822073    -0.73800
O1004       O  0.00202593  0.44292897  0.01703165    -0.73600
O1005       O  0.90170636  0.00365409  0.93019259    -0.73100
O1006       O  0.00697084  0.47892066  0.13256192    -0.73800
O1007       O  0.90140311  0.03559330  0.00340695    -0.73400
O1008       O  0.96490257  0.45250913  0.93369920    -0.74000
O1009       O  0.95624930  0.12803094  0.92455394    -0.73400
O1010       O  0.53329479  0.04483519  0.05452829    -0.74100
O1011       O  0.93262204  0.06543854  0.88101411    -0.73500
O1012       O  0.52438032  0.11772804  0.02333923    -0.74000
O1013       O  0.96627416  0.15800717  0.04673643    -0.73900
O1014       O  0.94085330  0.11983854  0.07734880    -0.73700
C1015       C  0.99391358  0.48680530  0.15947379     0.78100
C1016       C  0.98734512  0.43027979  0.96717526     0.78600
C1017       C  0.88868866  0.01667662  0.95591838     0.77600
C1018       C  0.93922160  0.10755002  0.88007185     0.77900
C1019       C  0.54173368  0.08406350  0.04813319     0.79100
C1020       C  0.95122075  0.15769523  0.07107198     0.78100
C1021       C  0.63178068  0.08479933  0.11443334     0.00800
C1022       C  0.61989581  0.06403088  0.14442287    -0.11100
C1023       C  0.59083454  0.06590331  0.12451182     0.03100
C1024       C  0.57274804  0.08819689  0.07250212     0.00700
C1025       C  0.58460275  0.10696979  0.04096666    -0.11000
C1026       C  0.61389683  0.10455475  0.06121315     0.02900
H1027       H  0.63335207  0.04621380  0.18352990     0.15900
H1028       H  0.57099491  0.12185352  0.99989355     0.15900
C1029       C  0.62533207  0.12110570  0.02630995     0.37600
C1030       C  0.58020722  0.04466133  0.15884940     0.37500
N1031       N  0.63469283  0.13407314  0.99850121    -0.42800
N1032       N  0.57351049  0.53791407  0.20240914    -0.42800
C1033       C  0.79780621  0.01313512  0.86324191     0.00800
C1034       C  0.81360185  0.97173749  0.88313771    -0.11100
C1035       C  0.84314899  0.97181306  0.91188272     0.03100
C1036       C  0.85756579  0.01397676  0.92719867     0.00700
C1037       C  0.84201024  0.05546075  0.90875946    -0.11000
C1038       C  0.81263789  0.05534686  0.87469327     0.02900
H1039       H  0.80687882  0.42711280  0.88526583     0.15900
H1040       H  0.85312502  0.08804849  0.91736731     0.15900
C1041       C  0.79918566  0.09824238  0.84675794     0.37600
C1042       C  0.86219188  0.41256125  0.94163606     0.37500
N1043       N  0.78899027  0.13290602  0.82404235    -0.42800
N1044       N  0.87336488  0.37682734  0.95537172    -0.42800
C1045       C  0.01127743  0.31067448  0.90642828     0.00800
C1046       C  0.51751596  0.33006743  0.94832066    -0.11100
C1047       C  0.51090351  0.36823458  0.97102224     0.03100
C1048       C  0.99695261  0.38964100  0.94762433     0.00700
C1049       C  0.98532169  0.38325530  0.89005379    -0.11000
C1050       C  0.99220073  0.34425969  0.86945804     0.02900
H1051       H  0.53048648  0.30209128  0.97566021     0.15900
H1052       H  0.97004673  0.40800148  0.86081840     0.15900
C1053       C  0.97760724  0.33726895  0.81015230     0.37600
C1054       C  0.52238617  0.36848737  0.03071346     0.37500
N1055       N  0.96589597  0.33119812  0.76274192    -0.42800
N1056       N  0.53152049  0.36843957  0.07855719    -0.42800
C1057       C  0.61239853  0.26946705  0.93936586     0.00800
C1058       C  0.59549875  0.29053829  0.88646214    -0.11100
C1059       C  0.56592887  0.28959769  0.86081322     0.03100
C1060       C  0.55280387  0.26445733  0.88622385     0.00700
C1061       C  0.56936626  0.24529827  0.93968287    -0.11000
C1062       C  0.59876826  0.24904385  0.96712985     0.02900
H1063       H  0.60542778  0.30864214  0.86554953     0.15900
H1064       H  0.55908762  0.22734659  0.96000708     0.15900
C1065       C  0.61388695  0.23146567  0.02345646     0.37600
C1066       C  0.54949911  0.31531916  0.80934812     0.37500
N1067       N  0.62479087  0.21721934  0.06879651    -0.42800
N1068       N  0.53627738  0.33600370  0.76810989    -0.42800
C1069       C  0.74788850  0.07904161  0.85945478     0.00800
C1070       C  0.73306512  0.11921628  0.83023684    -0.11100
C1071       C  0.72657661  0.15441229  0.85634242     0.03100
C1072       C  0.73563922  0.15092194  0.91391566     0.00700
C1073       C  0.75175164  0.11175251  0.94414886    -0.11000
C1074       C  0.75736415  0.07543863  0.91713468     0.02900
H1075       H  0.72542321  0.12217498  0.78572767     0.15900
H1076       H  0.75895471  0.10864094  0.98847978     0.15900
C1077       C  0.77076114  0.03356178  0.94824220     0.37600
C1078       C  0.71057574  0.19374629  0.82260518     0.37500
N1079       N  0.78387932  0.48733324  0.97539754    -0.42800
N1080       N  0.69759186  0.22498821  0.79519194    -0.42800
C1081       C  0.69312056  0.44662897  0.07501597     0.00800
C1082       C  0.69538540  0.45084134  0.12808986    -0.11100
C1083       C  0.68739881  0.49205475  0.14352743     0.03100
C1084       C  0.67791995  0.02365649  0.10269918     0.00700
C1085       C  0.67296840  0.01825529  0.04795599    -0.11000
C1086       C  0.68071489  0.48369934  0.03600119     0.02900
H1087       H  0.70449095  0.42259783  0.15837364     0.15900
H1088       H  0.66473678  0.04728106  0.01864839     0.15900
C1089       C  0.67484556  0.48008029  0.97903078     0.37600
C1090       C  0.69263228  0.49613452  0.20013552     0.37500
N1091       N  0.66959426  0.47718898  0.93301887    -0.42800
N1092       N  0.69685142  0.49958257  0.24548354    -0.42800
C1093       C  0.88345859  0.34200931  0.14340691     0.00800
C1094       C  0.87135569  0.31247464  0.16663377    -0.11100
C1095       C  0.84210643  0.30800724  0.14192406     0.03100
C1096       C  0.82417247  0.33408473  0.09286417     0.00700
C1097       C  0.83628963  0.36579494  0.07141100    -0.11000
C1098       C  0.86569263  0.37016740  0.09678233     0.02900
H1099       H  0.88470262  0.29435127  0.20545301     0.15900
H1100       H  0.82289591  0.38682808  0.03480046     0.15900
C1101       C  0.87748832  0.40575727  0.07700623     0.37600
C1102       C  0.83110360  0.27794489  0.16955801     0.37500
N1103       N  0.88752241  0.43481961  0.06299018    -0.42800
N1104       N  0.82236238  0.25394633  0.19184605    -0.42800
C1105       C  0.93172551  0.28457617  0.13150967     0.00800
C1106       C  0.94092380  0.28651885  0.09142125    -0.11100
C1107       C  0.94825916  0.24648744  0.07276537     0.03100
C1108       C  0.94495801  0.20200998  0.09157811     0.00700
C1109       C  0.93509225  0.19994988  0.13079448    -0.11000
C1110       C  0.92944687  0.24038488  0.15199979     0.02900
H1111       H  0.94417483  0.32009437  0.07709746     0.15900
H1112       H  0.93314797  0.16654074  0.14729788     0.15900
C1113       C  0.92449561  0.23532038  0.19893806     0.37600
C1114       C  0.96045874  0.25285361  0.03649217     0.37500
N1115       N  0.92102297  0.23038776  0.23716069    -0.42800
N1116       N  0.46123478  0.27004352  0.97358690    -0.42800
C1117       C  0.66911641  0.40963298  0.70584647     0.00800
C1118       C  0.67799881  0.43969932  0.75071985    -0.11100
C1119       C  0.68776866  0.42293946  0.80541702     0.03100
C1120       C  0.68697901  0.37500303  0.81580009     0.00700
C1121       C  0.67607332  0.34534351  0.77007400    -0.11000
C1122       C  0.66799375  0.36190029  0.71602159     0.02900
H1123       H  0.67840818  0.47649137  0.74310676     0.15900
H1124       H  0.67488802  0.30857113  0.77673227     0.15900
C1125       C  0.65964673  0.32893810  0.67209878     0.37600
C1126       C  0.69925227  0.45576378  0.84968225     0.37500
N1127       N  0.65328721  0.30230251  0.63722170    -0.42800
N1128       N  0.70883692  0.48243138  0.88476341    -0.42800
C1129       C  0.57189241  0.00288923  0.58293143     0.00800
C1130       C  0.57849217  0.96259076  0.56407853    -0.11100
C1131       C  0.60642246  0.95047337  0.58052135     0.03100
C1132       C  0.62883174  0.97957218  0.61550297     0.00700
C1133       C  0.62247613  0.01906803  0.63611455    -0.11000
C1134       C  0.59444598  0.03085241  0.62064486     0.02900
H1135       H  0.56175201  0.94014388  0.53638289     0.15900
H1136       H  0.63939280  0.03993807  0.66582696     0.15900
C1137       C  0.58982781  0.07080549  0.64616503     0.37600
C1138       C  0.61138022  0.90647769  0.56295394     0.37500
N1139       N  0.58618383  0.10269299  0.66683172    -0.42800
N1140       N  0.61503410  0.87040810  0.54999486    -0.42800
C1141       C  0.00604858  0.12078671  0.71486787     0.00800
C1142       C  0.50549993  0.11007533  0.75397290    -0.11100
C1143       C  0.51180115  0.13520863  0.80180123     0.03100
C1144       C  0.01995594  0.16960808  0.81324469     0.00700
C1145       C  0.02473201  0.18930040  0.77138271    -0.11000
C1146       C  0.01817638  0.16531937  0.72273093     0.02900
H1147       H  0.49762847  0.07511768  0.75043973     0.15900
H1148       H  0.03043488  0.22516287  0.77326741     0.15900
C1149       C  0.02108797  0.18954698  0.67915006     0.37600
C1150       C  0.50844661  0.11278259  0.84580313     0.37500
N1151       N  0.02335487  0.20905228  0.64423895    -0.42800
N1152       N  0.50579907  0.09469379  0.88103632    -0.42800
C1153       C  0.91551252  0.41869640  0.23017196     0.00800
C1154       C  0.91202153  0.39896080  0.27361205    -0.11100
C1155       C  0.91695898  0.42505946  0.32021843     0.03100
C1156       C  0.92557752  0.47179684  0.32378731     0.00700
C1157       C  0.92429240  0.49324981  0.27623552    -0.11000
C1158       C  0.91915724  0.46720533  0.22959808     0.02900
H1159       H  0.90883103  0.36199481  0.27451395     0.15900
H1160       H  0.93280056  0.99728070  0.28734536     0.15900
C1161       C  0.91938732  0.49067488  0.18288558     0.37600
C1162       C  0.91495761  0.40213402  0.36547500     0.37500
N1163       N  0.91919890  0.51026740  0.14547542    -0.42800
N1164       N  0.91348211  0.38359643  0.40179848    -0.42800
C1165       C  0.86293182  0.07442090  0.44348936     0.00800
C1166       C  0.84747574  0.05236580  0.39219866    -0.11100
C1167       C  0.81798419  0.05149012  0.36516099     0.03100
C1168       C  0.80337655  0.07529892  0.38764089     0.00700
C1169       C  0.81857073  0.09614158  0.43941406    -0.11000
C1170       C  0.84808289  0.09482254  0.46814547     0.02900
H1171       H  0.85851959  0.03444920  0.37395355     0.15900
H1172       H  0.80717025  0.11379974  0.45708418     0.15900
C1173       C  0.86220094  0.11500790  0.52226757     0.37600
C1174       C  0.80322432  0.02464925  0.31571660     0.37500
N1175       N  0.87272195  0.13104352  0.56587874    -0.42800
N1176       N  0.79142215  0.00285713  0.27621226    -0.42800
C1177       C  0.77002213  0.15319149  0.29620302     0.00800
C1178       C  0.77482986  0.13422157  0.25488039    -0.11100
C1179       C  0.77027452  0.16048276  0.20753835     0.03100
C1180       C  0.75906046  0.20608708  0.19953059     0.00700
C1181       C  0.75791724  0.22682273  0.24424023    -0.11000
C1182       C  0.76423099  0.20118365  0.29294016     0.02900
H1183       H  0.77891008  0.09765937  0.25591398     0.15900
H1184       H  0.75107695  0.26259413  0.24039382     0.15900
C1185       C  0.76318203  0.22417456  0.33809623     0.37600
C1186       C  0.77446866  0.13781996  0.16561167     0.37500
N1187       N  0.76286860  0.24284195  0.37469107    -0.42800
N1188       N  0.77803902  0.11962465  0.13229392    -0.42800
C1189       C  0.00591180  0.46702350  0.21696837     0.00800
C1190       C  0.01904952  0.42333486  0.22812611    -0.11100
C1191       C  0.02492280  0.39786190  0.27666679     0.03100
C1192       C  0.01847922  0.41695467  0.31640555     0.00700
C1193       C  0.51201550  0.47492277  0.30493888    -0.11000
C1194       C  0.00334846  0.48877788  0.25987840     0.02900
H1195       H  0.02213267  0.40691721  0.19620597     0.15900
H1196       H  0.50969154  0.49102555  0.33789751     0.15900
C1197       C  0.49660336  0.04672684  0.24213197     0.37600
C1198       C  0.03397074  0.35062860  0.27942566     0.37500
N1199       N  0.49025950  0.08516078  0.24063891    -0.42800
N1200       N  0.04127358  0.31323948  0.27846506    -0.42800
C1201       C  0.00153940  0.27983360  0.41075148     0.00800
C1202       C  0.98424936  0.24761506  0.37140451    -0.11100
C1203       C  0.97829252  0.20469448  0.38789293     0.03100
C1204       C  0.98845566  0.19423746  0.44498426     0.00700
C1205       C  0.00583657  0.22672146  0.48437013    -0.11000
C1206       C  0.01229235  0.26921837  0.46768176     0.02900
H1207       H  0.97534607  0.25623029  0.32738411     0.15900
H1208       H  0.52432560  0.21949650  0.51958293     0.15900
C1209       C  0.54160388  0.30048712  0.50157394     0.37600
C1210       C  0.96258222  0.17153016  0.34555679     0.37500
N1211       N  0.55975532  0.32223951  0.53426013    -0.42800
N1212       N  0.95023218  0.14453154  0.31199860    -0.42800
C1213       C  0.55233653  0.34269279  0.39494251     0.00800
C1214       C  0.57298723  0.37539965  0.42546408    -0.11100
C1215       C  0.60177468  0.36511210  0.44840566     0.03100
C1216       C  0.61079286  0.32136883  0.44074648     0.00700
C1217       C  0.59001024  0.28797896  0.41202450    -0.11000
C1218       C  0.56116100  0.29807711  0.38960483     0.02900
H1219       H  0.56650085  0.40931240  0.43152101     0.15900
H1220       H  0.59617379  0.25387433  0.40580838     0.15900
C1221       C  0.54123144  0.26274524  0.35870812     0.37600
C1222       C  0.62158820  0.40017078  0.47948618     0.37500
N1223       N  0.52552312  0.23418375  0.33352938    -0.42800
N1224       N  0.63819010  0.42747649  0.50454842    -0.42800
C1225       C  0.75695194  0.36702149  0.68612261     0.00800
C1226       C  0.75575183  0.35536377  0.73484879    -0.11100
C1227       C  0.76213178  0.38838988  0.77613067     0.03100
C1228       C  0.77022625  0.43360178  0.76939870     0.00700
C1229       C  0.77552590  0.44256708  0.72482472    -0.11000
C1230       C  0.76895316  0.40981408  0.68332492     0.02900
H1231       H  0.74730373  0.32218096  0.73828540     0.15900
H1232       H  0.78164060  0.47708884  0.71890416     0.15900
C1233       C  0.77341896  0.42174374  0.63676318     0.37600
C1234       C  0.75728842  0.37690126  0.82222793     0.37500
N1235       N  0.77713919  0.43100950  0.59956644    -0.42800
N1236       N  0.75378715  0.36771885  0.85968746    -0.42800
C1237       C  0.66856511  0.15574692  0.20842420     0.00800
C1238       C  0.66383298  0.13208764  0.24855991    -0.11100
C1239       C  0.66780480  0.15382347  0.29731098     0.03100
C1240       C  0.67819212  0.19944752  0.30808273     0.00700
C1241       C  0.68028076  0.22447132  0.26597614    -0.11000
C1242       C  0.67502539  0.20348210  0.21628062     0.02900
H1243       H  0.66049739  0.09529208  0.24581239     0.15900
H1244       H  0.68713331  0.26014072  0.27282577     0.15900
C1245       C  0.67785363  0.23166672  0.17541200     0.37600
C1246       C  0.66464922  0.12661894  0.33874886     0.37500
N1247       N  0.67958527  0.25561925  0.14293079    -0.42800
N1248       N  0.66239262  0.10485688  0.37227918    -0.42800
C1249       C  0.69457337  0.11792832  0.57375099     0.00800
C1250       C  0.68998049  0.08208166  0.53701700    -0.11100
C1251       C  0.68182470  0.03812513  0.54560753     0.03100
C1252       C  0.67655647  0.02905865  0.59090450     0.00700
C1253       C  0.68100294  0.06547657  0.62774984    -0.11000
C1254       C  0.68991912  0.10956965  0.61951729     0.02900
H1255       H  0.69348161  0.08825481  0.50163848     0.15900
H1256       H  0.67902454  0.05901466  0.66463905     0.15900
C1257       C  0.69357229  0.14599750  0.65751883     0.37600
C1258       C  0.68097113  0.00281869  0.50849228     0.37500
N1259       N  0.69644197  0.17566125  0.68743019    -0.42800
N1260       N  0.68484005  0.47765794  0.48506306    -0.42800
C1261       C  0.75647094  0.01757301  0.39924158     0.00800
C1262       C  0.75428832  0.47055537  0.37042012    -0.11100
C1263       C  0.74652462  0.42795484  0.38455093     0.03100
C1264       C  0.73919034  0.42541046  0.42772490     0.00700
C1265       C  0.74190972  0.46539841  0.45815470    -0.11000
C1266       C  0.74990937  0.50759072  0.44432992     0.02900
H1267       H  0.76355412  0.97868621  0.34100123     0.15900
H1268       H  0.73754405  0.46390965  0.49278288     0.15900
C1269       C  0.74698218  0.05517375  0.46961329     0.37600
C1270       C  0.74462029  0.38838055  0.35168225     0.37500
N1271       N  0.74573380  0.08756846  0.49244554    -0.42800
N1272       N  0.74317660  0.35677880  0.32523860    -0.42800
C1273       C  0.82164298  0.24816141  0.58187856     0.00800
C1274       C  0.83444081  0.23959565  0.54883217    -0.11100
C1275       C  0.86383708  0.24172974  0.57110446     0.03100
C1276       C  0.88119928  0.25212338  0.62773356     0.00700
C1277       C  0.86831350  0.26423887  0.65936481    -0.11000
C1278       C  0.83901587  0.26224301  0.63740958     0.02900
H1279       H  0.82148626  0.23067012  0.50556329     0.15900
H1280       H  0.88112762  0.27569004  0.70137198     0.15900
C1281       C  0.82749400  0.27686273  0.67246133     0.37600
C1282       C  0.87561070  0.23201703  0.53512289     0.37500
N1283       N  0.81842517  0.28880690  0.70071876    -0.42800
N1284       N  0.88458675  0.22400219  0.50550686    -0.42800
C1285       C  0.92742127  0.13250835  0.82549852     0.00800
C1286       C  0.92498694  0.10866757  0.77941947    -0.11100
C1287       C  0.92001852  0.13250732  0.73050585     0.03100
C1288       C  0.91728248  0.18131187  0.72685713     0.00700
C1289       C  0.91701687  0.20445728  0.77115286    -0.11000
C1290       C  0.92107005  0.18030777  0.81940843     0.02900
H1291       H  0.92920063  0.07171685  0.78307899     0.15900
H1292       H  0.91695745  0.24185298  0.77127638     0.15900
C1293       C  0.92002198  0.20575599  0.86308673     0.37600
C1294       C  0.92095641  0.10623204  0.68729119     0.37500
N1295       N  0.41133996  0.22897023  0.87556289    -0.42800
N1296       N  0.92188839  0.08401555  0.65361559    -0.42800
C1297       C  0.92811419  0.30813979  0.61138502     0.00800
C1298       C  0.92313896  0.34871550  0.63257531    -0.11100
C1299       C  0.93075442  0.39222610  0.62025689     0.03100
C1300       C  0.94268925  0.39582210  0.58416901     0.00700
C1301       C  0.94554783  0.35523577  0.55984550    -0.11000
C1302       C  0.93876281  0.31193430  0.57348893     0.02900
H1303       H  0.91554496  0.34608539  0.66259604     0.15900
H1304       H  0.95398125  0.35691141  0.53113337     0.15900
C1305       C  0.94452263  0.27146772  0.55036978     0.37600
C1306       C  0.92785365  0.43178716  0.64845740     0.37500
N1307       N  0.94937862  0.23902634  0.53231242    -0.42800
N1308       N  0.92576523  0.46347512  0.67136836    -0.42800
N1309       N  0.90971394  0.73762468  0.65529176    -0.02500
C1310       C  0.92410639  0.70228198  0.69161289     0.00100
C1311       C  0.95098062  0.69946927  0.69928219    -0.22800
C1312       C  0.95378490  0.73377424  0.66750160    -0.23000
C1313       C  0.92816048  0.75664245  0.64032699     0.00000
H1314       H  0.96702862  0.67613465  0.72766114     0.13800
H1315       H  0.97298326  0.74309856  0.66701303     0.13800
Zn1316     Zn  0.68275866  0.74097873  0.46687276     1.49700
Zn1317     Zn  0.73910109  0.75481648  0.57960929     1.49400
Zn1318     Zn  0.73468567  0.78288554  0.45828697     1.49100
Zn1319     Zn  0.70315738  0.84408130  0.50657244     1.49500
O1320       O  0.71526119  0.78083401  0.50332935    -1.83100
O1321       O  0.68557766  0.68404476  0.51205180    -0.73800
O1322       O  0.77767998  0.74380298  0.58785847    -0.73600
O1323       O  0.71253247  0.74802142  0.38587017    -0.73100
O1324       O  0.72310724  0.69343706  0.59487814    -0.73800
O1325       O  0.67629606  0.71961173  0.39285524    -0.73400
O1326       O  0.77474857  0.75999542  0.50537463    -0.74000
O1327       O  0.71556900  0.89026096  0.46615611    -0.73400
O1328       O  0.74758703  0.80362117  0.63893253    -0.74100
O1329       O  0.74004973  0.84850770  0.43740169    -0.73500
O1330       O  0.72532667  0.86522187  0.58593252    -0.74000
O1331       O  0.65991838  0.84802699  0.47503367    -0.73900
O1332       O  0.64810533  0.77526664  0.45108356    -0.73700
C1333       C  0.70187479  0.66968559  0.56154820     0.78100
C1334       C  0.78915485  0.74911440  0.55700738     0.78600
C1335       C  0.68967135  0.72516638  0.36588781     0.77600
C1336       C  0.73134459  0.88761150  0.44369315     0.77900
C1337       C  0.74217043  0.84699049  0.63330691     0.79100
C1338       C  0.64119219  0.81667357  0.45404063     0.78100
N1339       N  0.52126434  0.85208298  0.35461661    -0.02500
C1340       C  0.01280083  0.89983091  0.36440215     0.00100
C1341       C  0.99726100  0.91519101  0.38872181    -0.22800
C1342       C  0.99689482  0.88031385  0.42262013    -0.23000
C1343       C  0.01279100  0.84476181  0.41947114     0.00000
H1344       H  0.98570835  0.94717825  0.37982313     0.13800
H1345       H  0.98416772  0.87904450  0.44318294     0.13800
N1346       N  0.77153282  0.57585502  0.35709105    -0.02500
C1347       C  0.75845844  0.61472249  0.32678218     0.00100
C1348       C  0.73192145  0.61884030  0.32083509    -0.22800
C1349       C  0.72807014  0.58178172  0.34809423    -0.23000
C1350       C  0.75275171  0.55627814  0.37071411     0.00000
H1351       H  0.71704313  0.64587917  0.29769377     0.13800
H1352       H  0.70913297  0.57344213  0.35012744     0.13800
Zn1353     Zn  0.94875682  0.54619188  0.56593293     1.49700
Zn1354     Zn  0.98188035  0.97888655  0.51934918     1.49400
Zn1355     Zn  0.94174809  0.58123924  0.44513756     1.49100
Zn1356     Zn  0.00045315  0.58773618  0.55747223     1.49500
O1357       O  0.96668006  0.55086477  0.51789057    -1.83100
O1358       O  0.94374566  0.97247596  0.58620173    -0.73800
O1359       O  0.95970377  0.95801166  0.44003086    -0.73600
O1360       O  0.90310382  0.58594294  0.43877135    -0.73100
O1361       O  0.96974846  0.93256950  0.55908976    -0.73800
O1362       O  0.90749793  0.56670663  0.52181802    -0.73400
O1363       O  0.93368764  0.53978160  0.37884641    -0.74000
O1364       O  0.99855372  0.64571019  0.51564485    -0.73400
O1365       O  0.52227476  0.98492522  0.53855823    -0.74100
O1366       O  0.95774221  0.64488399  0.43764642    -0.73500
O1367       O  0.53415041  0.55325093  0.55694921    -0.74000
O1368       O  0.00784078  0.60691062  0.63298732    -0.73900
O1369       O  0.97148734  0.58028858  0.64060376    -0.73700
C1370       C  0.95292208  0.93398880  0.57926102     0.78100
C1371       C  0.94273725  0.97595986  0.39260887     0.78600
C1372       C  0.89230490  0.57779111  0.47037596     0.77600
C1373       C  0.98102837  0.66474429  0.46961270     0.77900
C1374       C  0.53902178  0.51155712  0.55052049     0.79100
C1375       C  0.99464869  0.60248392  0.66047146     0.78100
N1376       N  0.65779001  0.96681102  0.63303592    -0.02500
C1377       C  0.66799900  0.92404933  0.65544399     0.05300
C1378       C  0.68737244  0.90952358  0.64011181    -0.22800
C1379       C  0.69285059  0.44899467  0.61381977    -0.23000
C1380       C  0.67443553  0.48447601  0.60808141     0.00000
H1381       H  0.69999546  0.87840258  0.65467438     0.13800
H1382       H  0.71052682  0.45084164  0.60584801     0.13800
N1383       N  0.91537204  0.82738825  0.18135110    -0.02500
C1384       C  0.93152441  0.84779991  0.23109809     0.00100
C1385       C  0.95925299  0.83483294  0.25268093    -0.22800
C1386       C  0.96088058  0.80612743  0.21557642    -0.23000
C1387       C  0.93391501  0.80177310  0.17212578     0.00000
H1388       H  0.97638722  0.84449261  0.29198977     0.13800
H1389       H  0.97957721  0.78838219  0.22070448     0.13800
Zn1390     Zn  0.73208242  0.84907504  0.99705376     1.49700
Zn1391     Zn  0.75338791  0.74431241  0.04341665     1.49400
Zn1392     Zn  0.70284258  0.79004227  0.05677868     1.49100
Zn1393     Zn  0.69509028  0.75904869  0.93711548     1.49500
O1394       O  0.72069129  0.78622959  0.00851622    -1.83100
O1395       O  0.77598432  0.85298448  0.03669531    -0.73800
O1396       O  0.75896990  0.71859500  0.11583560    -0.73600
O1397       O  0.69870108  0.85718607  0.07383476    -0.73100
O1398       O  0.78802925  0.77945780  0.06390307    -0.73800
O1399       O  0.71489860  0.89823578  0.02601261    -0.73400
O1400       O  0.72652215  0.75292714  0.13039381    -0.74000
O1401       O  0.65661032  0.75227327  0.93103107    -0.73400
O1402       O  0.75331312  0.69146537  0.99603071    -0.74100
O1403       O  0.66143485  0.76948266  0.01397529    -0.73500
O1404       O  0.71104364  0.69975114  0.92210070    -0.74000
O1405       O  0.68841022  0.80324921  0.87425284    -0.73900
O1406       O  0.71504450  0.86408102  0.91381281    -0.73700
C1407       C  0.79467056  0.82111697  0.06108386     0.78100
C1408       C  0.74779088  0.72568598  0.14643578     0.78600
C1409       C  0.70262621  0.89604754  0.05584615     0.77600
C1410       C  0.64600887  0.75894588  0.96302019     0.77900
C1411       C  0.73487723  0.67885460  0.94803739     0.79100
C1412       C  0.69731215  0.84318179  0.87043225     0.78100
N1413       N  0.52453483  0.75783615  0.85218989    -0.02500
C1414       C  0.01290747  0.70592318  0.84959627     0.00100
C1415       C  0.98825151  0.70135721  0.85230957    -0.22800
C1416       C  0.98412512  0.74126943  0.87316974    -0.23000
C1417       C  0.00633448  0.76971015  0.88282417     0.00000
H1418       H  0.97363932  0.67327828  0.83646054     0.13800
H1419       H  0.96601777  0.74995076  0.87794767     0.13800
N1420       N  0.76750979  0.01089980  0.82736468    -0.02500
C1421       C  0.75384186  0.98078254  0.78505292     0.00100
C1422       C  0.72567151  0.99111131  0.75603826    -0.22800
C1423       C  0.72846524  0.52411187  0.78281911    -0.23000
C1424       C  0.75385705  0.53206287  0.82946617     0.00000
H1425       H  0.71059088  0.97497545  0.71927878     0.13800
H1426       H  0.70897392  0.54334595  0.76864604     0.13800
N1427       N  0.65924223  0.59623696  0.14185814    -0.02500
C1428       C  0.67195800  0.63571149  0.16876661     0.00100
C1429       C  0.69698997  0.64129419  0.16796162    -0.22800
C1430       C  0.70019875  0.60467749  0.14068787    -0.23000
C1431       C  0.67692252  0.57740434  0.12515771     0.00000
H1432       H  0.71225271  0.66744760  0.18919722     0.13800
H1433       H  0.71837559  0.59689777  0.13584285     0.13800
Zn1434     Zn  0.94786270  0.54160421  0.05985784     1.49700
Zn1435     Zn  0.99501558  0.00344290  0.05508619     1.49400
Zn1436     Zn  0.94490984  0.50836598  0.94480567     1.49100
Zn1437     Zn  0.97953231  0.60047687  0.00603214     1.49500
O1438       O  0.96793646  0.53785528  0.01673841    -1.83100
O1439       O  0.97068086  0.50964069  0.13717851    -0.73800
O1440       O  0.99714255  0.95069660  0.01044187    -0.73600
O1441       O  0.90694205  0.49096716  0.93644765    -0.73100
O1442       O  0.99715199  0.97934727  0.12562169    -0.73800
O1443       O  0.90788534  0.51779476  0.01308913    -0.73400
O1444       O  0.96008560  0.96203965  0.92769352    -0.74000
O1445       O  0.95775774  0.61841745  0.92409844    -0.73400
O1446       O  0.53240819  0.54366555  0.06598655    -0.74100
O1447       O  0.93486121  0.55500087  0.88178735    -0.73500
O1448       O  0.52191129  0.61547452  0.03116255    -0.74000
O1449       O  0.96687151  0.64923223  0.04294882    -0.73900
O1450       O  0.94211103  0.60829129  0.07294949    -0.73700
C1451       C  0.98306866  0.98790794  0.15042802     0.78100
C1452       C  0.98270785  0.93956458  0.95984870     0.78600
C1453       C  0.89473783  0.50019944  0.96489723     0.77600
C1454       C  0.94063822  0.59754594  0.88019203     0.77900
C1455       C  0.53996252  0.58310367  0.05769638     0.79100
C1456       C  0.95077665  0.64719954  0.06492971     0.78100
C1457       C  0.62945269  0.58773169  0.11786778     0.00800
C1458       C  0.61876025  0.56819583  0.15070137    -0.11100
C1459       C  0.58991115  0.56971640  0.13327333     0.03100
C1460       C  0.57072182  0.58895746  0.08019602     0.00700
C1461       C  0.58125388  0.60526451  0.04534160    -0.11000
C1462       C  0.61034995  0.60393009  0.06343638     0.02900
H1463       H  0.63295717  0.55149749  0.19015135     0.15900
H1464       H  0.56672399  0.61726460  0.00330142     0.15900
C1465       C  0.62010170  0.61709611  0.02465351     0.37600
C1466       C  0.58068507  0.55200724  0.17147202     0.37500
N1467       N  0.62775287  0.62728920  0.99314170    -0.42800
N1468       N  0.57169187  0.02736348  0.18614238    -0.42800
C1469       C  0.80410536  0.50102115  0.87025936     0.00800
C1470       C  0.81861293  0.45888412  0.89324620    -0.11100
C1471       C  0.84820847  0.45706176  0.92449428     0.03100
C1472       C  0.86364925  0.49838376  0.93681188     0.00700
C1473       C  0.84923757  0.54036042  0.91479633    -0.11000
C1474       C  0.82003871  0.54183779  0.88011059     0.02900
H1475       H  0.80292754  0.93895101  0.87413959     0.15900
H1476       H  0.86118667  0.57196080  0.92157096     0.15900
C1477       C  0.80781077  0.58468514  0.85025246     0.37600
C1478       C  0.85809823  0.92851675  0.92110776     0.37500
N1479       N  0.79862499  0.61927009  0.82615723    -0.42800
N1480       N  0.86985042  0.89385860  0.92624872    -0.42800
C1481       C  0.00582499  0.81911158  0.89706220     0.00800
C1482       C  0.51172389  0.82569436  0.94372057    -0.11100
C1483       C  0.50365412  0.86422824  0.96331234     0.03100
C1484       C  0.99241294  0.89985541  0.93824463     0.00700
C1485       C  0.97562540  0.88666188  0.88278825    -0.11000
C1486       C  0.98223351  0.84726467  0.86217171     0.02900
H1487       H  0.51811413  0.79392162  0.96869331     0.15900
H1488       H  0.95665911  0.90624049  0.85564715     0.15900
C1489       C  0.96344465  0.83457382  0.80556241     0.37600
C1490       C  0.50449279  0.85988851  0.01669661     0.37500
N1491       N  0.94848641  0.82376139  0.76041640    -0.42800
N1492       N  0.50489055  0.85629766  0.05919961    -0.42800
C1493       C  0.61464692  0.75935329  0.93744212     0.00800
C1494       C  0.59918514  0.77964167  0.88381355    -0.11100
C1495       C  0.56970535  0.78284609  0.85696541     0.03100
C1496       C  0.55478866  0.76244450  0.88180174     0.00700
C1497       C  0.57003247  0.74372795  0.93610155    -0.11000
C1498       C  0.59966241  0.74361728  0.96477658     0.02900
H1499       H  0.61028156  0.79465440  0.86339666     0.15900
H1500       H  0.55860355  0.72926240  0.95609403     0.15900
C1501       C  0.61368903  0.72742871  0.02185180     0.37600
C1502       C  0.55558024  0.80908701  0.80537358     0.37500
N1503       N  0.62401970  0.71448419  0.06771238    -0.42800
N1504       N  0.54481852  0.83044262  0.76403841    -0.42800
C1505       C  0.75599043  0.57123512  0.86589090     0.00800
C1506       C  0.74339239  0.61326983  0.83831724    -0.11100
C1507       C  0.73612577  0.64769815  0.86415717     0.03100
C1508       C  0.74216737  0.64165659  0.92002475     0.00700
C1509       C  0.75656050  0.60092446  0.94931593    -0.11000
C1510       C  0.76299075  0.56538598  0.92236896     0.02900
H1511       H  0.73772570  0.61821980  0.79478234     0.15900
H1512       H  0.76167370  0.59600880  0.99250219     0.15900
C1513       C  0.77467749  0.52216268  0.95194511     0.37600
C1514       C  0.72238762  0.68903546  0.83191870     0.37500
N1515       N  0.78127948  0.99971936  0.97286084    -0.42800
N1516       N  0.71128628  0.72204760  0.80595774    -0.42800
C1517       C  0.69259330  0.93945679  0.07011455     0.00800
C1518       C  0.69585711  0.94397391  0.12390626    -0.11100
C1519       C  0.68862188  0.98541611  0.14026039     0.03100
C1520       C  0.67643921  0.52985015  0.10530643     0.00700
C1521       C  0.67295312  0.52483965  0.05161553    -0.11000
C1522       C  0.67948662  0.97638459  0.03110758     0.02900
H1523       H  0.70510074  0.91565130  0.15402037     0.15900
H1524       H  0.66521588  0.55393832  0.02235711     0.15900
C1525       C  0.67104351  0.97144152  0.97292111     0.37600
C1526       C  0.69399726  0.98898523  0.19699654     0.37500
N1527       N  0.66339623  0.96746796  0.92589394    -0.42800
N1528       N  0.69820588  0.99195343  0.24239063    -0.42800
C1529       C  0.88490885  0.82917389  0.15000512     0.00800
C1530       C  0.86943277  0.82120159  0.17811958    -0.11100
C1531       C  0.84000727  0.82227908  0.14988132     0.03100
C1532       C  0.82515929  0.83115488  0.09185253     0.00700
C1533       C  0.84045902  0.84033277  0.06347067    -0.11000
C1534       C  0.87018641  0.83971839  0.09231278     0.02900
H1535       H  0.88041699  0.81262442  0.22222096     0.15900
H1536       H  0.82928072  0.84639731  0.01875138     0.15900
C1537       C  0.88532164  0.85055825  0.06255591     0.37600
C1538       C  0.82533611  0.81289199  0.18120327     0.37500
N1539       N  0.89807345  0.85909070  0.03979024    -0.42800
N1540       N  0.81346844  0.80543433  0.20603842    -0.42800
C1541       C  0.92856306  0.76791520  0.12812593     0.00800
C1542       C  0.94436745  0.77309198  0.10002649    -0.11100
C1543       C  0.95096380  0.73521196  0.07702608     0.03100
C1544       C  0.94169556  0.69033751  0.08198058     0.00700
C1545       C  0.92353905  0.68628283  0.10540020    -0.11000
C1546       C  0.91703744  0.72437207  0.12837614     0.02900
H1547       H  0.95365785  0.80641163  0.10023377     0.15900
H1548       H  0.91537782  0.65271351  0.10837738     0.15900
C1549       C  0.90068911  0.71691068  0.15656056     0.37600
C1550       C  0.96852603  0.74359232  0.05151451     0.37500
N1551       N  0.88752343  0.71085183  0.17904246    -0.42800
N1552       N  0.46072521  0.76535795  0.98108639    -0.42800
C1553       C  0.66757491  0.90345241  0.70528864     0.00800
C1554       C  0.67404099  0.93214842  0.75041686    -0.11100
C1555       C  0.68496959  0.91372718  0.80474382     0.03100
C1556       C  0.68639019  0.86519342  0.81392598     0.00700
C1557       C  0.67658759  0.83657701  0.76745531    -0.11000
C1558       C  0.66807528  0.85507457  0.71395887     0.02900
H1559       H  0.67312920  0.96932557  0.74407304     0.15900
H1560       H  0.67692042  0.79934884  0.77320143     0.15900
C1561       C  0.66088274  0.82350111  0.66906348     0.37600
C1562       C  0.69622259  0.94559776  0.85007623     0.37500
N1563       N  0.65533697  0.79794472  0.63339872    -0.42800
N1564       N  0.70592113  0.97133400  0.88618589    -0.42800
C1565       C  0.56860673  0.49837694  0.56969387     0.00800
C1566       C  0.58125839  0.51402037  0.53872138    -0.11100
C1567       C  0.61007055  0.50689950  0.55725887     0.03100
C1568       C  0.62781069  0.48533454  0.61047387     0.00700
C1569       C  0.61443290  0.47148739  0.64193328    -0.11000
C1570       C  0.58533385  0.47666559  0.62161864     0.02900
H1571       H  0.56823612  0.53144485  0.49886100     0.15900
H1572       H  0.62613343  0.45575251  0.68252231     0.15900
C1573       C  0.57306692  0.45927291  0.65485674     0.37600
C1574       C  0.61898098  0.52051465  0.51748079     0.37500
N1575       N  0.56321443  0.44489167  0.68122554    -0.42800
N1576       N  0.62396896  0.53202616  0.48251788    -0.42800
C1577       C  0.00623498  0.62528147  0.71555283     0.00800
C1578       C  0.50580969  0.61270370  0.74469805    -0.11100
C1579       C  0.51177725  0.63870366  0.79184843     0.03100
C1580       C  0.01914203  0.67434437  0.81397071     0.00700
C1581       C  0.02411494  0.69407069  0.77235438    -0.11000
C1582       C  0.01808786  0.67006586  0.72387173     0.02900
H1583       H  0.49836682  0.57755480  0.74212075     0.15900
H1584       H  0.02956942  0.73003578  0.77420832     0.15900
C1585       C  0.02103330  0.69470019  0.68058273     0.37600
C1586       C  0.50805058  0.61719197  0.83584539     0.37500
N1587       N  0.02322432  0.71465906  0.64584907    -0.42800
N1588       N  0.50496642  0.60004203  0.87102585    -0.42800
C1589       C  0.92287735  0.88198772  0.25974830     0.00800
C1590       C  0.92162714  0.86714075  0.30745822    -0.11100
C1591       C  0.92480770  0.89850336  0.34829770     0.03100
C1592       C  0.93082681  0.94548225  0.34325377     0.00700
C1593       C  0.92894655  0.96120070  0.29265000    -0.11000
C1594       C  0.92477830  0.92976782  0.25088092     0.02900
H1595       H  0.91992687  0.83050684  0.31453054     0.15900
H1596       H  0.92944130  0.52957666  0.27701641     0.15900
C1597       C  0.92431273  0.94652545  0.20054914     0.37600
C1598       C  0.92232302  0.88134717  0.39553266     0.37500
N1599       N  0.92347489  0.95939816  0.15953991    -0.42800
N1600       N  0.91985261  0.86755753  0.43283758    -0.42800
C1601       C  0.86108592  0.57608832  0.44418579     0.00800
C1602       C  0.84649040  0.55394037  0.39274321    -0.11100
C1603       C  0.81712159  0.54974960  0.36587967     0.03100
C1604       C  0.80163751  0.57057518  0.38848084     0.00700
C1605       C  0.81605048  0.59082233  0.44084097    -0.11000
C1606       C  0.84556641  0.59234045  0.46963356     0.02900
H1607       H  0.85817727  0.53857126  0.37421095     0.15900
H1608       H  0.80404478  0.60587908  0.45886289     0.15900
C1609       C  0.85898767  0.61062748  0.52481312     0.37600
C1610       C  0.80344369  0.52236784  0.31666428     0.37500
N1611       N  0.86897266  0.62476339  0.56937716    -0.42800
N1612       N  0.79254784  0.50003837  0.27741733    -0.42800
C1613       C  0.76762306  0.64549606  0.29454562     0.00800
C1614       C  0.77131455  0.62622693  0.25206471    -0.11100
C1615       C  0.76820196  0.65321372  0.20634809     0.03100
C1616       C  0.75924968  0.70001307  0.20073652     0.00700
C1617       C  0.75861550  0.72053072  0.24613623    -0.11000
C1618       C  0.76353370  0.69383383  0.29342827     0.02900
H1619       H  0.77339965  0.58925423  0.25095916     0.15900
H1620       H  0.75307552  0.75686193  0.24368351     0.15900
C1621       C  0.76291018  0.71603326  0.33945622     0.37600
C1622       C  0.77106262  0.63032378  0.16296027     0.37500
N1623       N  0.76298669  0.73351336  0.37708500    -0.42800
N1624       N  0.77334548  0.61197105  0.12821476    -0.42800
C1625       C  0.99301183  0.96709145  0.20692383     0.00800
C1626       C  0.00509429  0.92261361  0.21887116    -0.11100
C1627       C  0.01425713  0.90082475  0.27112843     0.03100
C1628       C  0.01143253  0.92382688  0.31355988     0.00700
C1629       C  0.51111753  0.97177905  0.29184670    -0.11000
C1630       C  0.99248754  0.99167770  0.25017845     0.02900
H1631       H  0.00664354  0.90406752  0.18642786     0.15900
H1632       H  0.50860147  0.98690977  0.32507031     0.15900
C1633       C  0.49421213  0.54740481  0.25114413     0.37600
C1634       C  0.02546599  0.85465157  0.27733125     0.37500
N1635       N  0.48602323  0.58491345  0.24791491    -0.42800
N1636       N  0.03433966  0.81794688  0.27885182    -0.42800
C1637       C  0.00680148  0.79669602  0.43044025     0.00800
C1638       C  0.98115735  0.77703312  0.39210719    -0.11100
C1639       C  0.97202564  0.73473550  0.40351394     0.03100
C1640       C  0.98891541  0.71058607  0.45448265     0.00700
C1641       C  0.01467662  0.73082023  0.49293161    -0.11000
C1642       C  0.02343676  0.77352220  0.48156515     0.02900
H1643       H  0.96770288  0.79562633  0.35362402     0.15900
H1644       H  0.51037080  0.73230587  0.51123742     0.15900
C1645       C  0.52626665  0.81411894  0.49127581     0.37600
C1646       C  0.94491315  0.71807183  0.36255332     0.37500
N1647       N  0.53795950  0.84228419  0.52362296    -0.42800
N1648       N  0.92308186  0.70506408  0.32965282    -0.42800
C1649       C  0.55111552  0.84192809  0.37959180     0.00800
C1650       C  0.57010213  0.87833187  0.40343236    -0.11100
C1651       C  0.59916905  0.87175140  0.42680329     0.03100
C1652       C  0.61041834  0.82699896  0.43034393     0.00700
C1653       C  0.59130371  0.79025750  0.40732870    -0.11000
C1654       C  0.56208721  0.79739175  0.38106650     0.02900
H1655       H  0.56207941  0.91269269  0.40336558     0.15900
H1656       H  0.59907424  0.75558905  0.40789071     0.15900
C1657       C  0.54452463  0.75904041  0.35198005     0.37600
C1658       C  0.61624232  0.91222178  0.44671256     0.37500
N1659       N  0.53156935  0.72733290  0.32830883    -0.42800
N1660       N  0.62854266  0.94614089  0.46242956    -0.42800
C1661       C  0.75530560  0.87767981  0.68235161     0.00800
C1662       C  0.75574979  0.86418937  0.73223875    -0.11100
C1663       C  0.76027648  0.89697605  0.77280946     0.03100
C1664       C  0.76524314  0.94380048  0.76452657     0.00700
C1665       C  0.76908176  0.95541528  0.71880364    -0.11000
C1666       C  0.76410727  0.92298131  0.67778689     0.02900
H1667       H  0.74973520  0.82931263  0.73706903     0.15900
H1668       H  0.77272448  0.99124470  0.71175366     0.15900
C1669       C  0.76666841  0.93803522  0.62992987     0.37600
C1670       C  0.75697219  0.88284400  0.82008656     0.37500
N1671       N  0.76894359  0.95052572  0.59195055    -0.42800
N1672       N  0.75473290  0.87143998  0.85844995    -0.42800
C1673       C  0.66597595  0.66268566  0.20810957     0.00800
C1674       C  0.66217789  0.63861391  0.24911461    -0.11100
C1675       C  0.66748679  0.65942621  0.29902893     0.03100
C1676       C  0.67836612  0.70470839  0.31008283     0.00700
C1677       C  0.67974992  0.73025577  0.26758183    -0.11000
C1678       C  0.67298790  0.71026106  0.21661766     0.02900
H1679       H  0.65914144  0.60173911  0.24660830     0.15900
H1680       H  0.68693705  0.76576484  0.27481480     0.15900
C1681       C  0.67518059  0.73911113  0.17535223     0.37600
C1682       C  0.66513795  0.63147134  0.34089670     0.37500
N1683       N  0.67679408  0.76341220  0.14295800    -0.42800
N1684       N  0.66332678  0.60891652  0.37439827    -0.42800
C1685       C  0.69617534  0.62289330  0.57750469     0.00800
C1686       C  0.69469724  0.58614691  0.54374118    -0.11100
C1687       C  0.68711420  0.54170544  0.55238274     0.03100
C1688       C  0.67973548  0.53296145  0.59485197     0.00700
C1689       C  0.68086535  0.56995176  0.62850191    -0.11000
C1690       C  0.68926153  0.61455666  0.62044981     0.02900
H1691       H  0.69944572  0.59230561  0.50996600     0.15900
H1692       H  0.67584376  0.56378746  0.66185806     0.15900
C1693       C  0.68996423  0.65146642  0.65561674     0.37600
C1694       C  0.68588458  0.50614818  0.51499838     0.37500
N1695       N  0.69055415  0.68123520  0.68369110    -0.42800
N1696       N  0.68136965  0.97537415  0.47876899    -0.42800
C1697       C  0.75513122  0.51086277  0.39875258     0.00800
C1698       C  0.75829818  0.97667804  0.37441807    -0.11100
C1699       C  0.75070319  0.93374615  0.38836999     0.03100
C1700       C  0.74079709  0.93134410  0.42775998     0.00700
C1701       C  0.74052627  0.97214789  0.45447473    -0.11000
C1702       C  0.74844176  0.01459625  0.44114638     0.02900
H1703       H  0.75766111  0.47299480  0.33454540     0.15900
H1704       H  0.73366760  0.97120444  0.48559303     0.15900
C1705       C  0.75190507  0.54760677  0.47665162     0.37600
C1706       C  0.75143647  0.89362097  0.35863540     0.37500
N1707       N  0.75366820  0.57958119  0.50278631    -0.42800
N1708       N  0.75202927  0.86160792  0.33456349    -0.42800
C1709       C  0.82034869  0.74643606  0.58279271     0.00800
C1710       C  0.83280214  0.73495850  0.54995963    -0.11100
C1711       C  0.86216165  0.73494453  0.57220545     0.03100
C1712       C  0.87969088  0.74519444  0.62877128     0.00700
C1713       C  0.86730387  0.75942817  0.66045588    -0.11000
C1714       C  0.83802352  0.76045333  0.63819717     0.02900
H1715       H  0.81958878  0.72605546  0.50675465     0.15900
H1716       H  0.88052983  0.77082516  0.70240228     0.15900
C1717       C  0.82687202  0.77889998  0.67227420     0.37600
C1718       C  0.87371400  0.72396049  0.53615041     0.37500
N1719       N  0.81803236  0.79411374  0.69950923    -0.42800
N1720       N  0.88256640  0.71508644  0.50655064    -0.42800
C1721       C  0.92779482  0.62307937  0.82584274     0.00800
C1722       C  0.92521636  0.60049480  0.77895156    -0.11100
C1723       C  0.91959360  0.62552880  0.73035952     0.03100
C1724       C  0.91610256  0.67418333  0.72766819     0.00700
C1725       C  0.91559124  0.69590826  0.77253777    -0.11000
C1726       C  0.92077401  0.67067042  0.82092840     0.02900
H1727       H  0.92999990  0.56378409  0.78178874     0.15900
H1728       H  0.91472560  0.73325040  0.77313129     0.15900
C1729       C  0.92082233  0.69507900  0.86640334     0.37600
C1730       C  0.92086651  0.60095520  0.68640370     0.37500
N1731       N  0.41397722  0.72589142  0.88114263    -0.42800
N1732       N  0.92204063  0.58050882  0.65177337    -0.42800
C1733       C  0.92543782  0.80141239  0.61065591     0.00800
C1734       C  0.91915384  0.84151291  0.63064033    -0.11100
C1735       C  0.92793652  0.88524111  0.62175527     0.03100
C1736       C  0.94255221  0.88931003  0.59065558     0.00700
C1737       C  0.94622675  0.84932727  0.56640892    -0.11000
C1738       C  0.93753151  0.80606840  0.57537481     0.02900
H1739       H  0.90951832  0.83831259  0.65717769     0.15900
H1740       H  0.95654495  0.85144095  0.54101660     0.15900
C1741       C  0.94248054  0.76646327  0.54978996     0.37600
C1742       C  0.92356264  0.92427867  0.64876939     0.37500
N1743       N  0.94642750  0.73490948  0.52908301    -0.42800
N1744       N  0.92016617  0.95530356  0.67095294    -0.42800
loop_ 
_geom_bond_atom_site_label_1 
_geom_bond_atom_site_label_2 
_geom_bond_distance 
_geom_bond_site_symmetry_2 
_ccdc_geom_bond_type 
N1            C5   1.362       .  A
N1            C2   1.360       .  A
N1          C404   1.444       .  S
C2            C3   1.373       .  A
C2          C416   1.484       .  S
C3            C4   1.364       .  A
C3            H6   1.072       .  S
C4            C5   1.381       .  A
C4            H7   1.082       .  S
C5          C425   1.482       .  S
Zn8          O12   1.942       .  S
Zn8          O13   1.969       .  S
Zn8          O17   1.996       .  S
Zn8          O24   1.970       .  S
Zn9          O12   1.988       .  S
Zn9          O14   2.049       .  S
Zn9          O16   2.107       .  S
Zn9          O20   2.066       .  S
Zn10         O12   1.965       .  S
Zn10         O15   2.030       .  S
Zn10         O18   2.012       .  S
Zn10         O21   2.007       .  S
Zn11         O12   1.957       .  S
Zn11         O19   2.043       .  S
Zn11         O22   2.009       .  S
Zn11         O23   2.070       .  S
O13          C25   1.268       .  A
O14          C26   1.279       .  A
O15          C27   1.275       .  A
O16          C25   1.284       .  A
O17          C27   1.269       .  A
O18          C26   1.274       .  A
O19          C28   1.277       .  A
O20          C29   1.278       .  A
O21          C28   1.270       .  A
O22          C29   1.274       .  A
O23          C30   1.281       .  A
O24          C30   1.268       .  A
C25         C377   1.487       .  S
C26         C401   1.490       .  S
C27         C368   1.480       .  S
C28         C392   1.493       .  S
C29         C353   1.491       .  S
C30         C344   1.500       .  S
N31         C907   1.367       .  A
N31         C904   1.365       .  A
N31         C341   1.449       .  S
C32         N903   1.368       .  A
C32          C33   1.379       .  A
C32         C320   1.501       .  S
C33          C34   1.362       .  A
C33          H36   1.076       .  S
C34          C35   1.371       .  A
C34          H37   1.077       .  S
C35         N903   1.367       .  A
C35         C329   1.483       .  S
N38          C42   1.363       .  A
N38          C39   1.362       .  A
N38         C296   1.440       .  S
C39          C40   1.372       .  A
C39         C305   1.485       .  S
C40          C41   1.361       .  A
C40          H43   1.070       .  S
C41          C42   1.379       .  A
C41          H44   1.082       .  S
C42         C389   1.483       .  S
Zn45         O49   1.986       .  S
Zn45         O54   2.063       .  S
Zn45         O61   2.079       .  S
Zn45        O486   2.035   1_545  S
Zn46        O485   1.961       .  S
Zn46         O51   2.029       .  S
Zn46         O53   1.992       .  S
Zn46        O929   2.059       .  S
Zn47         O49   1.963       .  S
Zn47         O52   2.011       .  S
Zn47         O55   2.038       .  S
Zn47         O58   2.060       .  S
Zn48         O49   1.953       .  S
Zn48         O56   1.988       .  S
Zn48         O60   1.981       .  S
Zn48        O931   1.966       .  S
O49        Zn482   1.963   1_545  S
O50        Zn481   2.039       .  S
O50          C62   1.275       .  A
O51          C63   1.275       .  A
O52          C64   1.275       .  A
O53          C62   1.272       .  A
O54          C64   1.279       .  A
O55         C499   1.274   1_545  A
O56          C65   1.269       .  A
O57        Zn918   2.063   1_455  S
O57         C502   1.279       .  A
O58          C65   1.279       .  A
O59        Zn920   1.974       .  S
O59          C66   1.266       .  A
O60          C67   1.267       .  A
O61          C67   1.280       .  A
C62         C428   1.496       .  S
C63         C284   1.488       .  S
C63         O491   1.273       .  A
C64         C293   1.490       .  S
C65         C332   1.499       .  S
C66         C257   1.501   1_545  S
C66         O493   1.282   1_545  A
C67         C269   1.491       .  S
N68          C69   1.370       .  A
N68         C508   1.370       .  A
N68         C696   1.467       .  S
C69          C70   1.377       .  A
C69         C245   1.491       .  S
C70         C507   1.364       .  A
C70          H73   1.080       .  S
C71          C72   1.384       .  A
C71         C506   1.367       .  A
C71          H74   1.080       .  S
C72         N504   1.370       .  A
C72         C380   1.503   1_565  S
N75          C79   1.372       .  A
N75          C76   1.359       .  A
N75         C221   1.440       .  S
C76          C77   1.369       .  A
C76         C281   1.490       .  S
C77          C78   1.369       .  A
C77          H80   1.068       .  S
C78          C79   1.382       .  A
C78          H81   1.082       .  S
C79         C233   1.504       .  S
Zn82         O86   1.978   1_556  S
Zn82         O87   2.081   1_556  S
Zn82         O91   2.058   1_556  S
Zn82         O98   2.054       .  S
Zn83         O86   1.954       .  S
Zn83         O88   1.978       .  S
Zn83         O90   1.951       .  S
Zn83         O94   2.000   1_554  S
Zn84         O86   1.967       .  S
Zn84         O89   2.034       .  S
Zn84         O92   2.061       .  S
Zn84         O95   2.043       .  S
Zn85         O86   1.953   1_556  S
Zn85         O93   2.031       .  S
Zn85         O96   2.055       .  S
Zn85         O97   1.999       .  S
O87          C99   1.282       .  A
O88         C100   1.267       .  A
O89         C101   1.275       .  A
O90          C99   1.266       .  A
O91         C101   1.279       .  A
O92         C100   1.278       .  A
O93         C102   1.277       .  A
O94         C103   1.268       .  A
O95         C102   1.278   1_554  A
O96         C103   1.279       .  A
O97         C104   1.271       .  A
O98         C104   1.278       .  A
C99         C224   1.484       .  S
C100        C308   1.486       .  S
C101        C209   1.498       .  S
C102        C185   1.490       .  S
C103        C200   1.489       .  S
C104        C248   1.496       .  S
N105        C981   1.359       .  A
N105        C978   1.364       .  A
N105        C188   1.440       .  S
C106        N977   1.365       .  A
C106        C107   1.375       .  A
C106        C272   1.494       .  S
C107        C108   1.365       .  A
C107        H110   1.073       .  S
C108        C109   1.375       .  A
C108        H111   1.081       .  S
C109        N977   1.363       .  A
C109        C173   1.482       .  S
N112        C113   1.370       .  A
N112        C552   1.375       .  A
N112        C597   1.455       .  S
C113        C114   1.370       .  A
C113        C356   1.486       .  S
C114        C551   1.357       .  A
C114        H117   1.074       .  S
C115        C116   1.378       .  A
C115        C550   1.358   1_545  A
C115        H118   1.083       .  S
C116        N548   1.373       .  A
C116        C197   1.490       .  S
N119        C123   1.363       .  A
N119        C120   1.368       .  A
N119        C149   1.444       .  S
C120        C121   1.381       .  A
C120        C365   1.501       .  S
C121        C122   1.367       .  A
C121        H124   1.075       .  S
C122        C123   1.375       .  A
C122        H125   1.081       .  S
C123        C212   1.485       .  S
Zn126       O130   1.968       .  S
Zn126       O131   2.074       .  S
Zn126       O135   2.052       .  S
Zn126       O142   2.047       .  S
Zn127       O566   1.948       .  S
Zn127       O132   2.009       .  S
Zn127       O134   1.977       .  S
Zn127      O1446   1.940       .  S
Zn128       O130   1.969   1_556  S
Zn128       O133   2.012       .  S
Zn128       O139   1.991       .  S
Zn128       O572   2.070   1_545  S
Zn129       O130   1.991   1_556  S
Zn129       O137   2.047       .  S
Zn129       O141   2.079   1_556  S
Zn129      O1012   2.111   1_556  S
O130       Zn563   1.936       .  S
O131        C579   1.281       .  A
O132        C144   1.269   1_554  A
O133        C145   1.274       .  A
O134        C143   1.268       .  A
O135        C145   1.279   1_554  A
O136       Zn564   2.055       .  S
O136        C144   1.276       .  A
O137        C146   1.279       .  A
O138      Zn1435   1.957   1_455  S
O138        C147   1.266       .  A
O139        C146   1.271       .  A
O140      Zn1001   2.079   1_455  S
O140        C147   1.282       .  A
O141        C148   1.280       .  A
O142        C148   1.277       .  A
C143        C317   1.491       .  S
C143        O567   1.282       .  A
C144        C176   1.499       .  S
C145        C164   1.478       .  S
C146        C413   1.476       .  S
C147        C152   1.483       .  S
C148        C236   1.513       .  S
C149        C150   1.398       .  A
C149        C154   1.411       .  A
C150        C151   1.400       .  A
C150        H155   1.081       .  S
C151        C152   1.419       .  A
C151        C158   1.446       .  S
C152        C153   1.402       .  A
C153        C154   1.403       .  A
C153        H156   1.085       .  S
C154        C157   1.440       .  S
C157        N159   1.157   1_554  T
C158        N596   1.158       .  T
N160        C594   1.157       .  T
C161        N548   1.451       .  S
C161        C162   1.410   1_545  A
C161        C166   1.414       .  A
C162        C163   1.406       .  A
C162        H603   1.081       .  S
C163        C164   1.409   1_565  A
C163        C606   1.443       .  S
C164        C165   1.402       .  A
C165        C166   1.401       .  A
C165        H168   1.085       .  S
C166        C169   1.442       .  S
H167        C598   1.079       .  S
C169        N171   1.157       .  T
C170        C599   1.444       .  S
C170        N172   1.158       .  T
C173        C178   1.412       .  A
C173       C1046   1.400       .  A
C174        C175   1.404       .  A
C174       C1045   1.398       .  A
C174        H179   1.085       .  S
C175       C1048   1.424   1_455  A
C175        C182   1.445   1_556  S
C176        C177   1.407       .  A
C176       C1047   1.422       .  A
C177        C178   1.404       .  A
C177        H180   1.084       .  S
C178        C181   1.445       .  S
C181        N183   1.157       .  T
C182        N184   1.158       .  T
C185        C186   1.410       .  A
C185        C190   1.411       .  A
C186        C187   1.407       .  A
C186        H191   1.085       .  S
C187        C188   1.407       .  A
C187        C194   1.442       .  S
C188        C189   1.399       .  A
C189        C190   1.399       .  A
C189        H192   1.085       .  S
C190        C193   1.435   1_556  S
C193        N195   1.154       .  T
C194        N196   1.157       .  T
C197        C198   1.406       .  A
C197        C202   1.410       .  A
C198        C199   1.396       .  A
C198        H203   1.084       .  S
C199        C200   1.410       .  A
C199        C206   1.445       .  S
C200        C201   1.412       .  A
C201        C202   1.411       .  A
C201        H204   1.084       .  S
C202        C205   1.443       .  S
C205        N643   1.157       .  T
C206        N208   1.157       .  T
N207        C641   1.157       .  T
C209        C210   1.409       .  A
C209        C214   1.416       .  A
C210        C211   1.408       .  A
C210        H215   1.084       .  S
C211        C648   1.412       .  A
C211        C218   1.444       .  S
C212        C213   1.402       .  A
C212        C647   1.412   1_545  A
C213        C650   1.402   1_545  A
C213        H216   1.084       .  S
C214        C649   1.404       .  A
C214        C217   1.442   1_554  S
C217        N219   1.156       .  T
C218        N220   1.157       .  T
C221        C222   1.396       .  A
C221        C226   1.411       .  A
C222        C223   1.399       .  A
C222        H227   1.079       .  S
C223        C224   1.421       .  A
C223        C230   1.446       .  S
C224        C225   1.401       .  A
C225        C226   1.402       .  A
C225        H228   1.085       .  S
C226        C229   1.439       .  S
C229        N231   1.156       .  T
C230        N232   1.158       .  T
C233        C234   1.409       .  A
C233        C238   1.413       .  A
C234        C235   1.410       .  A
C234        H239   1.085       .  S
C235        C236   1.419       .  A
C235        C242   1.443       .  S
C236        C237   1.411       .  A
C237        C238   1.411       .  A
C237        H240   1.085       .  S
C238        C241   1.438       .  S
C241        N243   1.155       .  T
C242       N1116   1.157   1_554  T
N244       C1114   1.158       .  T
C245        C246   1.403       .  A
C245        C250   1.408       .  A
C246        C247   1.400       .  A
C246        H251   1.080       .  S
C247        C248   1.415       .  A
C247        C254   1.442       .  S
C248        C249   1.412       .  A
C249        C250   1.403       .  A
C249        H252   1.084       .  S
C250        C253   1.444       .  S
C253        N255   1.157       .  T
C254        N256   1.157       .  T
C257        C258   1.402       .  A
C257        C262   1.427   1_565  A
C258        C259   1.403       .  A
C258        H263   1.085       .  S
C259        C260   1.422       .  A
C259        C266   1.442       .  S
C260        N504   1.452       .  S
C260        C261   1.397   1_565  A
C261        C262   1.404       .  A
C261        H264   1.079       .  S
C262        C265   1.445       .  S
C265        N267   1.158       .  T
C266        N268   1.157       .  T
C269        C274   1.420       .  A
C269       C1142   1.403       .  A
C270        C271   1.403       .  A
C270       C1141   1.402       .  A
C270        H275   1.085   1_455  S
C271       C1144   1.418       .  A
C271        C278   1.445       .  S
C272        C273   1.401       .  A
C272       C1143   1.418       .  A
C273        C274   1.403       .  A
C273        H276   1.077       .  S
C274        C277   1.445       .  S
C277        N279   1.157       .  T
C278        N280   1.157       .  T
C281        C282   1.403       .  A
C281        C286   1.416       .  A
C282        C283   1.406       .  A
C282        H287   1.084       .  S
C283        C284   1.416       .  A
C283        C290   1.444       .  S
C284        C285   1.401       .  A
C285        C286   1.402       .  A
C285        H724   1.085       .  S
C286        C289   1.442       .  S
H288        C721   1.085   1_545  S
C289        N291   1.157       .  T
C290        N292   1.157       .  T
C293        C294   1.410       .  A
C293        C298   1.413       .  A
C294        C295   1.402       .  A
C294        H299   1.085       .  S
C295        C296   1.404       .  A
C295        C302   1.441       .  S
C296        C297   1.403       .  A
C297        C298   1.405       .  A
C297        H300   1.085       .  S
C298        C301   1.438       .  S
C301        N303   1.156       .  T
C302        N304   1.157       .  T
C305        C306   1.401       .  A
C305        C310   1.414       .  A
C306        C307   1.402       .  A
C306        H311   1.079       .  S
C307        C308   1.417       .  A
C307        C314   1.445       .  S
C308        C309   1.403       .  A
C309        C310   1.403       .  A
C309        H312   1.085       .  S
C310        C313   1.444       .  S
C313        N315   1.157       .  T
C314        N316   1.157       .  T
C317        C318   1.407       .  A
C317        C322   1.410       .  A
C318        C319   1.404       .  A
C318        H323   1.085       .  S
C319        C320   1.416       .  A
C319        C326   1.439       .  S
C320       C1193   1.414       .  A
C321       C1192   1.413       .  A
C321       C1194   1.405       .  A
C321        H324   1.085       .  S
C322       C1193   1.404       .  A
C322       C1633   1.443       .  S
C325       C1630   1.444   1_545  S
C325        N327   1.157       .  T
C326        N328   1.156       .  T
C329        C330   1.407       .  A
C329        C334   1.404       .  A
C330        C331   1.403       .  A
C330        H335   1.085       .  S
C331        C332   1.415       .  A
C331        C338   1.444       .  S
C332        C333   1.415       .  A
C333        C334   1.405       .  A
C333       H1208   1.084       .  S
C334       C1209   1.443       .  S
H336       C1205   1.084       .  S
C337       C1206   1.444       .  S
C337        N339   1.157       .  T
C338        N340   1.158       .  T
C341        C342   1.408       .  A
C341        C346   1.412       .  A
C342        C343   1.403       .  A
C342        H347   1.084       .  S
C343        C344   1.410       .  A
C343        C350   1.435       .  S
C344        C345   1.410       .  A
C345        C346   1.401       .  A
C345        H348   1.084       .  S
C346        C349   1.441       .  S
C349        N351   1.157       .  T
C350        N352   1.154       .  T
C353        C354   1.403       .  A
C353        C358   1.415       .  A
C354        C355   1.409       .  A
C354        H359   1.084       .  S
C355        C356   1.416       .  A
C355        C362   1.442       .  S
C356        C357   1.402       .  A
C357        C358   1.403       .  A
C357        H360   1.085       .  S
C358        C361   1.444       .  S
C361        N363   1.157       .  T
C362        N364   1.157       .  T
C365        C366   1.407       .  A
C365        C370   1.424       .  A
C366        C367   1.403       .  A
C366        H371   1.072       .  S
C367        C368   1.411       .  A
C367        C374   1.445       .  S
C368        C369   1.397       .  A
C369        C370   1.399       .  A
C369        H372   1.085       .  S
C370        C373   1.440       .  S
C373        N375   1.156       .  T
C374        N376   1.157       .  T
C377        C378   1.399       .  A
C377        C382   1.410       .  A
C378        C379   1.397       .  A
C378        H383   1.085       .  S
C379        C380   1.419       .  A
C379        C386   1.442       .  S
C380        C381   1.412       .  A
C381        C382   1.413       .  A
C381        H384   1.080       .  S
C382        C385   1.441       .  S
C385        N387   1.157       .  T
C386        N824   1.157   1_545  T
N388        C822   1.157       .  T
C389        C826   1.402   1_545  A
C389        C830   1.411       .  A
C390        C391   1.408       .  A
C390        C825   1.403       .  A
C390        H831   1.085       .  S
C391        C392   1.419       .  A
C391        C398   1.445       .  S
C392        C393   1.404       .  A
C393        C394   1.399       .  A
C393        H396   1.083       .  S
C394        C825   1.411       .  A
C394        C833   1.445       .  S
H395        C826   1.083       .  S
C397        C830   1.446       .  S
C397        N399   1.157       .  T
C398        N400   1.158       .  T
C401        C402   1.408       .  A
C401        C406   1.417       .  A
C402        C403   1.406       .  A
C402        H407   1.085       .  S
C403        C404   1.411       .  A
C403        C410   1.443       .  S
C404        C405   1.398       .  A
C405        C406   1.400       .  A
C405        H408   1.080       .  S
C406        C409   1.444       .  S
C409        N411   1.157       .  T
C410        N412   1.157       .  T
C413        C414   1.399       .  A
C413        C418   1.409       .  A
C414        C415   1.396       .  A
C414        H419   1.085       .  S
C415        C416   1.415       .  A
C415        C422   1.440       .  S
C416        C417   1.406       .  A
C417        C418   1.402       .  A
C417        H420   1.078       .  S
C418        C421   1.442       .  S
C421       N1295   1.157       .  T
C422        N424   1.156       .  T
N423       C1293   1.157       .  T
C425        C426   1.402       .  A
C425        C430   1.411       .  A
C426        C427   1.407       .  A
C426        H431   1.084       .  S
C427        C428   1.419       .  A
C427        C434   1.443       .  S
C428        C429   1.409       .  A
C429        C430   1.395       .  A
C429        H432   1.084       .  S
C430        C433   1.446       .  S
C433        N435   1.158       .  T
C434        N436   1.157       .  T
N437        C441   1.363       .  A
N437        C438   1.364       .  A
N437        C840   1.443       .  S
C438        C439   1.375       .  A
C438        C852   1.493       .  S
C439        C440   1.364       .  A
C439        H442   1.069       .  S
C440        C441   1.377       .  A
C440        H443   1.080       .  S
C441        C861   1.486       .  S
Zn444       O448   1.948       .  S
Zn444       O449   1.985       .  S
Zn444       O453   2.013       .  S
Zn444       O460   1.984       .  S
Zn445       O448   1.986       .  S
Zn445       O450   2.013       .  S
Zn445       O452   2.080       .  S
Zn445       O456   2.051       .  S
Zn446       O448   1.966       .  S
Zn446       O451   2.050       .  S
Zn446       O454   2.018       .  S
Zn446       O457   2.018       .  S
Zn447       O448   1.953       .  S
Zn447       O455   2.026       .  S
Zn447       O458   2.022       .  S
Zn447       O459   2.071       .  S
O449        C461   1.270       .  A
O450        C462   1.275       .  A
O451        C463   1.278       .  A
O452        C461   1.280       .  A
O453        C463   1.270       .  A
O454        C462   1.275       .  A
O455        C464   1.276       .  A
O456        C465   1.275       .  A
O457        C464   1.271       .  A
O458        C465   1.275       .  A
O459        C466   1.282       .  A
O460        C466   1.271       .  A
C461        C813   1.482       .  S
C462        C837   1.486       .  S
C463        C804   1.489       .  S
C464        C828   1.497       .  S
C465        C789   1.493       .  S
C466        C780   1.498       .  S
N467       C1343   1.366       .  A
N467       C1340   1.368       .  A
N467        C777   1.449       .  S
C468       N1339   1.365       .  A
C468        C469   1.375       .  A
C468        C756   1.495       .  S
C469        C470   1.363       .  A
C469        H472   1.073       .  S
C470        C471   1.370       .  A
C470        H473   1.078       .  S
C471       N1339   1.365       .  A
C471        C765   1.477       .  S
N474        C478   1.364       .  A
N474        C475   1.360       .  A
N474        C732   1.440       .  S
C475        C476   1.371       .  A
C475        C741   1.486       .  S
C476        C477   1.363       .  A
C476        H479   1.072       .  S
C477        C478   1.378       .  A
C477        H480   1.081       .  S
C478        C825   1.482       .  S
Zn481       O485   1.984       .  S
Zn481       O490   2.049       .  S
Zn481       O497   2.080       .  S
Zn482       O487   2.052       .  S
Zn482       O489   2.022       .  S
Zn482      O1365   2.071       .  S
Zn483       O485   1.968       .  S
Zn483       O488   2.022       .  S
Zn483       O491   2.030       .  S
Zn483       O494   2.061       .  S
Zn484       O485   1.950       .  S
Zn484       O492   1.991       .  S
Zn484      O1367   1.983       .  S
Zn484       O496   1.991       .  S
O486        C498   1.274       .  A
O487        C499   1.278       .  A
O488        C500   1.276       .  A
O489        C498   1.276       .  A
O490        C500   1.278       .  A
O492        C501   1.270       .  A
O493      Zn1354   2.081   1_455  S
O494        C501   1.280       .  A
O495      Zn1356   1.975       .  S
O495        C502   1.267       .  A
O496        C503   1.269       .  A
O497        C503   1.282       .  A
C498        C864   1.498       .  S
C499        C720   1.495       .  S
C500        C729   1.490       .  S
C501        C768   1.487       .  S
C502        C693   1.472       .  S
C503        C705   1.492       .  S
N504        C505   1.358       .  A
C505        C506   1.372       .  A
C505        C681   1.486       .  S
C506        H509   1.073       .  S
C507        C508   1.383       .  A
C507        H510   1.081       .  S
C508        C816   1.496       .  S
N511        C515   1.373       .  A
N511        C512   1.362       .  A
N511        C657   1.440       .  S
C512        C513   1.371       .  A
C512        C717   1.498       .  S
C513        C514   1.367       .  A
C513        H516   1.071       .  S
C514        C515   1.381       .  A
C514        H517   1.082       .  S
C515        C669   1.508       .  S
Zn518       O522   1.985       .  S
Zn518       O523   2.084       .  S
Zn518       O527   2.062       .  S
Zn518       O534   2.054   1_554  S
Zn519       O522   1.957       .  S
Zn519       O524   1.988       .  S
Zn519       O526   1.958       .  S
Zn519       O530   2.008   1_554  S
Zn520       O522   1.969       .  S
Zn520       O525   2.036       .  S
Zn520       O528   2.059       .  S
Zn520       O531   2.054       .  S
Zn521       O522   1.953   1_556  S
Zn521       O529   2.039       .  S
Zn521       O532   2.065       .  S
Zn521       O533   1.987       .  S
O523        C535   1.282       .  A
O524        C536   1.268       .  A
O525        C537   1.275       .  A
O526        C535   1.267       .  A
O527        C537   1.280       .  A
O528        C536   1.279       .  A
O529        C538   1.277       .  A
O530        C539   1.269       .  A
O531        C538   1.279   1_554  A
O532        C539   1.280       .  A
O533        C540   1.271       .  A
O534        C540   1.278       .  A
C535        C660   1.484       .  S
C536        C744   1.485       .  S
C537        C645   1.499       .  S
C538        C621   1.496       .  S
C539        C636   1.489       .  S
C540        C684   1.489       .  S
N541       C1417   1.366       .  A
N541       C1414   1.370       .  A
N541        C624   1.443       .  S
C542       N1413   1.366       .  A
C542        C543   1.376       .  A
C542        C708   1.493       .  S
C543        C544   1.364       .  A
C543        H546   1.074       .  S
C544        C545   1.377       .  A
C544        H547   1.082       .  S
C545       N1413   1.366       .  A
C545        C609   1.483       .  S
N548        C549   1.366   1_545  A
C549        C550   1.370       .  A
C549        C792   1.485       .  S
C550        H553   1.069       .  S
C551        C552   1.378       .  A
C551        H554   1.082       .  S
C552        C633   1.493       .  S
N555        C559   1.363       .  A
N555        C556   1.369       .  A
N555        C585   1.442       .  S
C556        C557   1.378       .  A
C556        C801   1.508       .  S
C557        C558   1.368       .  A
C557        H560   1.073       .  S
C558        C559   1.374       .  A
C558        H561   1.080       .  S
C559        C648   1.487       .  S
Zn562       O566   1.976       .  S
Zn562       O567   2.085       .  S
Zn562       O571   2.063       .  S
Zn562       O578   2.055       .  S
Zn563       O568   1.994   1_544  S
Zn563       O570   1.963   1_545  S
Zn563      O1010   1.927       .  S
Zn564       O566   1.976   1_556  S
Zn564       O569   2.012       .  S
Zn564       O575   2.012       .  S
Zn565       O566   1.987   1_556  S
Zn565       O573   2.053       .  S
Zn565      O1448   2.102   1_556  S
Zn565       O577   2.080   1_556  S
O568        C580   1.267       .  A
O569        C581   1.274       .  A
O570        C579   1.266   1_565  A
O571        C581   1.281   1_554  A
O572        C580   1.276       .  A
O573        C582   1.279       .  A
O574       Zn999   1.944       .  S
O574        C583   1.264       .  A
O575        C582   1.272       .  A
O576      Zn1437   2.083   1_455  S
O576        C583   1.281       .  A
O577        C584   1.281       .  A
O578        C584   1.277       .  A
C579        C753   1.484   1_545  S
C580        C612   1.492       .  S
C581        C600   1.480       .  S
C582        C849   1.486       .  S
C583        C588   1.480       .  S
C584        C672   1.516       .  S
C585        C586   1.394       .  A
C585        C590   1.414       .  A
C586        C587   1.396       .  A
C586        H591   1.080       .  S
C587        C588   1.418       .  A
C587        C594   1.446       .  S
C588        C589   1.403       .  A
C589        C590   1.405       .  A
C589        H592   1.085       .  S
C590        C593   1.442       .  S
C593        N595   1.158   1_554  T
C597        C598   1.411       .  A
C597        C602   1.416       .  A
C598        C599   1.407       .  A
C599        C600   1.410       .  A
C600        C601   1.400       .  A
C601        C602   1.400       .  A
C601        H604   1.086       .  S
C602        C605   1.441       .  S
C605        N607   1.157       .  T
C606        N608   1.157       .  T
C609       C1482   1.403       .  A
C609        C614   1.414       .  A
C610       C1481   1.400       .  A
C610        C611   1.411       .  A
C610        H615   1.084       .  S
C611       C1484   1.427   1_455  A
C611        C618   1.443   1_556  S
C612       C1483   1.417       .  A
C612        C613   1.405       .  A
C613        C614   1.407       .  A
C613        H616   1.085       .  S
C614        C617   1.443       .  S
C617        N619   1.157       .  T
C618        N620   1.157       .  T
C621        C622   1.412       .  A
C621        C626   1.412       .  A
C622        C623   1.409       .  A
C622        H627   1.084       .  S
C623        C624   1.407       .  A
C623        C630   1.442       .  S
C624        C625   1.401       .  A
C625        C626   1.402       .  A
C625        H628   1.085       .  S
C626        C629   1.435   1_556  S
C629        N631   1.154       .  T
C630        N632   1.157       .  T
C633        C634   1.406       .  A
C633        C638   1.411       .  A
C634        C635   1.395       .  A
C634        H639   1.085       .  S
C635        C636   1.408       .  A
C635        C642   1.442       .  S
C636        C637   1.412       .  A
C637        C638   1.413       .  A
C637        H640   1.084       .  S
C638        C641   1.442       .  S
C642        N644   1.156       .  T
C645        C646   1.410       .  A
C645        C650   1.415       .  A
C646        C647   1.410       .  A
C646        H651   1.084       .  S
C647        C654   1.444       .  S
C648        C649   1.403       .  A
C649        H652   1.084       .  S
C650        C653   1.441   1_554  S
C653        N655   1.156       .  T
C654        N656   1.157       .  T
C657        C658   1.394       .  A
C657        C662   1.414       .  A
C658        C659   1.398       .  A
C658        H663   1.079       .  S
C659        C660   1.419       .  A
C659        C666   1.446       .  S
C660        C661   1.403       .  A
C661        C662   1.406       .  A
C661        H664   1.084       .  S
C662        C665   1.441       .  S
C665        N667   1.157       .  T
C666        N668   1.157       .  T
C669        C670   1.410       .  A
C669        C674   1.415       .  A
C670        C671   1.410       .  A
C670        H675   1.085       .  S
C671        C672   1.419       .  A
C671        C678   1.443       .  S
C672        C673   1.413       .  A
C673        C674   1.414       .  A
C673        H676   1.085       .  S
C674        C677   1.440       .  S
C677        N679   1.157       .  T
C678       N1552   1.157   1_554  T
N680       C1550   1.158       .  T
C681        C682   1.405       .  A
C681        C686   1.411       .  A
C682        C683   1.403       .  A
C682        H687   1.084       .  S
C683        C684   1.413       .  A
C683        C690   1.442       .  S
C684        C685   1.407       .  A
C685        C686   1.397       .  A
C685        H688   1.082       .  S
C686        C689   1.445       .  S
C689        N691   1.157       .  T
C690        N692   1.157       .  T
C693        C694   1.396       .  A
C693        C698   1.402       .  A
C694        C695   1.406       .  A
C694        H699   1.086       .  S
C695        C696   1.430       .  A
C695        C702   1.439       .  S
C696        C697   1.413       .  A
C697        C698   1.399       .  A
C697        H700   1.071       .  S
C698        C701   1.445       .  S
C701        N703   1.157       .  T
C702        N704   1.157       .  T
C705       C1578   1.404       .  A
C705        C710   1.418       .  A
C706       C1577   1.405       .  A
C706        C707   1.409       .  A
C706        H711   1.084   1_455  S
C707       C1580   1.422       .  A
C707        C714   1.445       .  S
C708       C1579   1.418       .  A
C708        C709   1.401       .  A
C709        C710   1.403       .  A
C709        H712   1.075       .  S
C710        C713   1.445       .  S
C713        N715   1.157       .  T
C714        N716   1.157       .  T
C717        C718   1.405       .  A
C717        C722   1.417       .  A
C718        C719   1.410       .  A
C718        H723   1.083       .  S
C719        C720   1.416       .  A
C719        C726   1.444       .  S
C720        C721   1.404       .  A
C721        C722   1.406       .  A
C722        C725   1.443       .  S
C725        N727   1.157   1_565  T
C726        N728   1.157       .  T
C729        C730   1.410       .  A
C729        C734   1.413       .  A
C730        C731   1.403       .  A
C730        H735   1.085       .  S
C731        C732   1.404       .  A
C731        C738   1.441       .  S
C732        C733   1.403       .  A
C733        C734   1.404       .  A
C733        H736   1.085       .  S
C734        C737   1.439       .  S
C737        N739   1.156       .  T
C738        N740   1.157       .  T
C741        C742   1.402       .  A
C741        C746   1.413       .  A
C742        C743   1.403       .  A
C742        H747   1.078       .  S
C743        C744   1.417       .  A
C743        C750   1.445       .  S
C744        C745   1.403       .  A
C745        C746   1.401       .  A
C745        H748   1.085       .  S
C746        C749   1.442       .  S
C749        N751   1.156       .  T
C750        N752   1.157       .  T
C753        C754   1.407       .  A
C753        C758   1.408       .  A
C754        C755   1.402       .  A
C754        H759   1.085       .  S
C755        C756   1.414       .  A
C755        C762   1.441       .  S
C756       C1629   1.412       .  A
C757       C1628   1.414       .  A
C757       C1630   1.401   1_455  A
C757        H760   1.082       .  S
C758       C1629   1.403       .  A
C758       C1197   1.443   1_565  S
C761       C1194   1.443   1_655  S
C761        N763   1.157       .  T
C762        N764   1.157       .  T
C765        C766   1.405       .  A
C765        C770   1.406       .  A
C766        C767   1.403       .  A
C766        H771   1.085       .  S
C767        C768   1.411       .  A
C767        C774   1.444       .  S
C768        C769   1.409       .  A
C769        C770   1.403       .  A
C769       H1644   1.084       .  S
C770       C1645   1.444       .  S
H772       C1641   1.084       .  S
C773       C1642   1.443       .  S
C773        N775   1.157       .  T
C774        N776   1.157       .  T
C777        C778   1.405       .  A
C777        C782   1.410       .  A
C778        C779   1.395       .  A
C778        H783   1.084       .  S
C779        C780   1.412       .  A
C779        C786   1.435       .  S
C780        C781   1.415       .  A
C781        C782   1.404       .  A
C781        H784   1.084       .  S
C782        C785   1.443       .  S
C785        N787   1.157       .  T
C786        N788   1.154       .  T
C789        C790   1.404       .  A
C789        C794   1.416       .  A
C790        C791   1.407       .  A
C790        H795   1.084       .  S
C791        C792   1.415       .  A
C791        C798   1.443       .  S
C792        C793   1.402       .  A
C793        C794   1.404       .  A
C793        H796   1.085       .  S
C794        C797   1.444       .  S
C797        N799   1.157       .  T
C798        N800   1.157       .  T
C801        C802   1.410       .  A
C801        C806   1.423       .  A
C802        C803   1.409       .  A
C802        H807   1.073       .  S
C803        C804   1.413       .  A
C803        C810   1.445       .  S
C804        C805   1.398       .  A
C805        C806   1.401       .  A
C805        H808   1.085       .  S
C806        C809   1.440       .  S
C809        N811   1.156       .  T
C810        N812   1.157       .  T
C813        C814   1.400       .  A
C813        C818   1.412       .  A
C814        C815   1.396       .  A
C814        H819   1.086       .  S
C815        C816   1.418       .  A
C815        C822   1.445       .  S
C816        C817   1.409       .  A
C817        C818   1.412       .  A
C817        H820   1.084       .  S
C818        C821   1.442       .  S
C821        N823   1.157       .  T
C826        C827   1.408       .  A
C827        C828   1.422       .  A
C827        C834   1.444       .  S
C828        C829   1.405       .  A
C829        C830   1.396   1_565  A
C829        H832   1.082       .  S
C833        N835   1.157       .  T
C834        N836   1.157       .  T
C837        C838   1.404       .  A
C837        C842   1.419       .  A
C838        C839   1.402       .  A
C838        H843   1.085       .  S
C839        C840   1.413       .  A
C839        C846   1.441       .  S
C840        C841   1.398       .  A
C841        C842   1.400       .  A
C841        H844   1.078       .  S
C842        C845   1.445       .  S
C845        N847   1.157       .  T
C846        N848   1.157       .  T
C849        C850   1.402       .  A
C849        C854   1.409       .  A
C850        C851   1.402       .  A
C850        H855   1.085       .  S
C851        C852   1.418       .  A
C851        C858   1.443       .  S
C852        C853   1.406       .  A
C853        C854   1.403       .  A
C853        H856   1.076       .  S
C854        C857   1.441       .  S
C857       N1731   1.156       .  T
C858        N860   1.157       .  T
N859       C1729   1.157       .  T
C861        C862   1.404       .  A
C861        C866   1.412       .  A
C862        C863   1.409       .  A
C862        H867   1.085       .  S
C863        C864   1.421       .  A
C863        C870   1.444       .  S
C864        C865   1.407       .  A
C865        C866   1.397       .  A
C865        H868   1.084       .  S
C866        C869   1.445       .  S
C869        N871   1.157       .  T
C870        N872   1.158       .  T
N873        C877   1.365       .  A
N873        C874   1.363       .  A
N873       C1276   1.448       .  S
C874        C875   1.371       .  A
C874       C1288   1.484       .  S
C875        C876   1.363       .  A
C875        H878   1.074       .  S
C876        C877   1.381       .  A
C876        H879   1.082       .  S
C877       C1297   1.486       .  S
Zn880       O884   1.954       .  S
Zn880       O885   1.985       .  S
Zn880       O889   2.010       .  S
Zn880       O896   1.988       .  S
Zn881       O884   1.987       .  S
Zn881       O886   2.035       .  S
Zn881       O888   2.090       .  S
Zn881       O892   2.052       .  S
Zn882       O884   1.971       .  S
Zn882       O887   2.054       .  S
Zn882       O890   2.031       .  S
Zn882       O893   2.015       .  S
Zn883       O884   1.955       .  S
Zn883       O891   2.034       .  S
Zn883       O894   2.025       .  S
Zn883       O895   2.068       .  S
O885        C897   1.270       .  A
O886        C898   1.278       .  A
O887        C899   1.278       .  A
O888        C897   1.282       .  A
O889        C899   1.270       .  A
O890        C898   1.277       .  A
O891        C900   1.276       .  A
O892        C901   1.275       .  A
O893        C900   1.271       .  A
O894        C901   1.275       .  A
O895        C902   1.282       .  A
O896        C902   1.270       .  A
C897       C1249   1.486       .  S
C898       C1273   1.495       .  S
C899       C1240   1.488       .  S
C900       C1264   1.493       .  S
C901       C1225   1.490       .  S
C902       C1216   1.502       .  S
N903       C1213   1.449       .  S
C904        C905   1.379   1_455  A
C904       C1192   1.497       .  S
C905        C906   1.364       .  A
C905        H908   1.076       .  S
C906        C907   1.374   1_655  A
C906        H909   1.081       .  S
C907       C1201   1.479       .  S
N910        C914   1.364       .  A
N910        C911   1.362       .  A
N910       C1168   1.436       .  S
C911        C912   1.372       .  A
C911       C1177   1.491       .  S
C912        C913   1.364       .  A
C912        H915   1.070       .  S
C913        C914   1.376       .  A
C913        H916   1.079       .  S
C914       C1261   1.486       .  S
Zn917       O921   1.978       .  S
Zn917      O1358   2.031   1_545  S
Zn917       O926   2.044       .  S
Zn917       O933   2.067       .  S
Zn918      O1357   1.967       .  S
Zn918       O923   2.029       .  S
Zn918       O925   2.023       .  S
Zn919       O921   1.973       .  S
Zn919       O924   2.011       .  S
Zn919       O927   2.050       .  S
Zn919       O930   2.062       .  S
Zn920       O921   1.942   1_455  S
Zn920       O928   1.984   1_455  S
Zn920       O932   1.981       .  S
O921      Zn1354   1.953   1_545  S
O922      Zn1353   2.023       .  S
O922        C934   1.273       .  A
O923        C935   1.274       .  A
O924        C936   1.275       .  A
O925        C934   1.276       .  A
O926        C936   1.277       .  A
O927       C1371   1.275   1_545  A
O928        C937   1.269       .  A
O929       C1374   1.278       .  A
O930        C937   1.280       .  A
O931        C938   1.266       .  A
O932        C939   1.268   1_455  A
O933        C939   1.280       .  A
C934       C1300   1.498       .  S
C935       C1156   1.496       .  S
C935       O1363   1.277       .  A
C936       C1165   1.486       .  S
C937       C1204   1.492       .  S
C938       C1129   1.493       .  S
C938       O1365   1.282   1_545  A
C939       C1141   1.486   1_655  S
N940       C1380   1.374       .  A
N940        C941   1.372       .  A
N940       C1568   1.473       .  S
C941        C942   1.377       .  A
C941       C1117   1.493       .  S
C942       C1379   1.362       .  A
C942        H945   1.079       .  S
C943       C1378   1.368       .  A
C943        C944   1.383       .  A
C943        H946   1.079       .  S
C944       N1376   1.370       .  A
C944       C1252   1.506   1_565  S
N947        C951   1.373       .  A
N947        C948   1.362       .  A
N947       C1093   1.440       .  S
C948        C949   1.369       .  A
C948       C1153   1.495       .  S
C949        C950   1.366       .  A
C949        H952   1.068       .  S
C950        C951   1.380       .  A
C950        H953   1.082       .  S
C951       C1105   1.504       .  S
Zn954       O958   1.983   1_556  S
Zn954       O959   2.086   1_556  S
Zn954       O963   2.056   1_556  S
Zn954       O970   2.058       .  S
Zn955       O958   1.956       .  S
Zn955       O960   1.982       .  S
Zn955       O962   1.955       .  S
Zn955       O966   2.008   1_554  S
Zn956       O958   1.973       .  S
Zn956       O961   2.039       .  S
Zn956       O964   2.071       .  S
Zn956       O967   2.074       .  S
Zn957       O958   1.947   1_556  S
Zn957       O965   2.014       .  S
Zn957       O968   2.050       .  S
Zn957       O969   1.990       .  S
O959        C971   1.282       .  A
O960        C972   1.267       .  A
O961        C973   1.275       .  A
O962        C971   1.266       .  A
O963        C973   1.279       .  A
O964        C972   1.280       .  A
O965        C974   1.275       .  A
O966        C975   1.269       .  A
O967        C974   1.281   1_554  A
O968        C975   1.278       .  A
O969        C976   1.271       .  A
O970        C976   1.279       .  A
C971       C1096   1.485       .  S
C972       C1180   1.491       .  S
C973       C1081   1.496       .  S
C974       C1057   1.494       .  S
C975       C1072   1.490       .  S
C976       C1120   1.493       .  S
N977       C1060   1.440       .  S
C978        C979   1.380   1_455  A
C978       C1144   1.493       .  S
C979        C980   1.363       .  A
C979        H982   1.075       .  S
C980        C981   1.372   1_655  A
C980        H983   1.080       .  S
C981       C1045   1.475       .  S
N984       C1424   1.374       .  A
N984        C985   1.366       .  A
N984       C1469   1.451       .  S
C985        C986   1.370       .  A
C985       C1228   1.485       .  S
C986       C1423   1.356       .  A
C986        H989   1.066       .  S
C987       C1422   1.356   1_545  A
C987        C988   1.377       .  A
C987        H990   1.083       .  S
C988       N1420   1.375       .  A
C988       C1069   1.489       .  S
N991        C995   1.364       .  A
N991        C992   1.364       .  A
N991       C1021   1.439       .  S
C992        C993   1.376       .  A
C992       C1237   1.503       .  S
C993        C994   1.371       .  A
C993        H996   1.072       .  S
C994        C995   1.378       .  A
C994        H997   1.082       .  S
C995       C1084   1.491       .  S
Zn998      O1002   1.967       .  S
Zn998      O1003   2.054       .  S
Zn998      O1007   2.044       .  S
Zn998      O1014   2.049       .  S
Zn999      O1438   1.940   1_455  S
Zn999      O1004   1.989       .  S
Zn999      O1006   1.980       .  S
Zn1000     O1002   1.973   1_556  S
Zn1000     O1005   2.027       .  S
Zn1000     O1444   2.071   1_545  S
Zn1000     O1011   2.005       .  S
Zn1001     O1002   1.978       .  S
Zn1001     O1009   2.043   1_554  S
Zn1001     O1013   2.066       .  S
O1002     Zn1435   1.950       .  S
O1003      C1451   1.279   1_545  A
O1004      C1016   1.268   1_454  A
O1005      C1017   1.276       .  A
O1006      C1015   1.268   1_455  A
O1007      C1017   1.278   1_554  A
O1008     Zn1436   2.053       .  S
O1008      C1016   1.278       .  A
O1009      C1018   1.278       .  A
O1010      C1019   1.263       .  A
O1011      C1018   1.272       .  A
O1012      C1019   1.285       .  A
O1013      C1020   1.279       .  A
O1014      C1020   1.276       .  A
C1015      C1189   1.486   1_655  S
C1015      O1439   1.279       .  A
C1016      C1048   1.495       .  S
C1017      C1036   1.481       .  S
C1018      C1285   1.483       .  S
C1019      C1024   1.485       .  S
C1020      C1108   1.513       .  S
C1021      C1022   1.393       .  A
C1021      C1026   1.413       .  A
C1022      C1023   1.397       .  A
C1022      H1027   1.082       .  S
C1023      C1024   1.422       .  A
C1023      C1030   1.447       .  S
C1024      C1025   1.404       .  A
C1025      C1026   1.408       .  A
C1025      H1028   1.084   1_554  S
C1026      C1029   1.442       .  S
C1029      N1031   1.157   1_554  T
C1030      N1468   1.157       .  T
N1032      C1466   1.157       .  T
C1033      N1420   1.453       .  S
C1033      C1034   1.409   1_545  A
C1033      C1038   1.416       .  A
C1034      C1035   1.403       .  A
C1034      H1475   1.080       .  S
C1035      C1036   1.406   1_565  A
C1035      C1478   1.441       .  S
C1036      C1037   1.403       .  A
C1037      C1038   1.404       .  A
C1037      H1040   1.085       .  S
C1038      C1041   1.442       .  S
H1039      C1470   1.081       .  S
C1041      N1043   1.157       .  T
C1042      C1471   1.443       .  S
C1042      N1044   1.158       .  T
C1045      C1050   1.410   1_455  A
C1046      C1047   1.406       .  A
C1046      H1051   1.085       .  S
C1047      C1054   1.444   1_556  S
C1048      C1049   1.406       .  A
C1049      C1050   1.400       .  A
C1049      H1052   1.084       .  S
C1050      C1053   1.444       .  S
C1053      N1055   1.156       .  T
C1054      N1056   1.157       .  T
C1057      C1058   1.413       .  A
C1057      C1062   1.413       .  A
C1058      C1059   1.406       .  A
C1058      H1063   1.085       .  S
C1059      C1060   1.405       .  A
C1059      C1066   1.443       .  S
C1060      C1061   1.399       .  A
C1061      C1062   1.401       .  A
C1061      H1064   1.085       .  S
C1062      C1065   1.436   1_556  S
C1065      N1067   1.155       .  T
C1066      N1068   1.158       .  T
C1069      C1070   1.406       .  A
C1069      C1074   1.409       .  A
C1070      C1071   1.395       .  A
C1070      H1075   1.085       .  S
C1071      C1072   1.410       .  A
C1071      C1078   1.443       .  S
C1072      C1073   1.412       .  A
C1073      C1074   1.412       .  A
C1073      H1076   1.084       .  S
C1074      C1077   1.442       .  S
C1077      N1515   1.157   1_545  T
C1078      N1080   1.157       .  T
N1079      C1513   1.158       .  T
C1081      C1082   1.408       .  A
C1081      C1086   1.415       .  A
C1082      C1083   1.409       .  A
C1082      H1087   1.084       .  S
C1083      C1520   1.413       .  A
C1083      C1090   1.444       .  S
C1084      C1519   1.413   1_545  A
C1084      C1085   1.404       .  A
C1085      C1522   1.409   1_545  A
C1085      H1088   1.084       .  S
C1086      C1521   1.404       .  A
C1086      C1089   1.442   1_554  S
C1089      N1091   1.157       .  T
C1090      N1092   1.157       .  T
C1093      C1094   1.394       .  A
C1093      C1098   1.412       .  A
C1094      C1095   1.399       .  A
C1094      H1099   1.079       .  S
C1095      C1096   1.421       .  A
C1095      C1102   1.446       .  S
C1096      C1097   1.402       .  A
C1097      C1098   1.405       .  A
C1097      H1100   1.084       .  S
C1098      C1101   1.439       .  S
C1101      N1103   1.156       .  T
C1102      N1104   1.158       .  T
C1105      C1106   1.409       .  A
C1105      C1110   1.414       .  A
C1106      C1107   1.407       .  A
C1106      H1111   1.085       .  S
C1107      C1108   1.418       .  A
C1107      C1114   1.444       .  S
C1108      C1109   1.413       .  A
C1109      C1110   1.414       .  A
C1109      H1112   1.084       .  S
C1110      C1113   1.440       .  S
C1113      N1115   1.157       .  T
C1117      C1118   1.405       .  A
C1117      C1122   1.409       .  A
C1118      C1119   1.403       .  A
C1118      H1123   1.082       .  S
C1119      C1120   1.414       .  A
C1119      C1126   1.442       .  S
C1120      C1121   1.410       .  A
C1121      C1122   1.400       .  A
C1121      H1124   1.082       .  S
C1122      C1125   1.444       .  S
C1125      N1127   1.157       .  T
C1126      N1128   1.157       .  T
C1129      C1130   1.399   1_545  A
C1129      C1134   1.426       .  A
C1130      C1131   1.397       .  A
C1130      H1135   1.085       .  S
C1131      C1132   1.419       .  A
C1131      C1138   1.440       .  S
C1132      N1376   1.448       .  S
C1132      C1133   1.399   1_565  A
C1133      C1134   1.406       .  A
C1133      H1136   1.081       .  S
C1134      C1137   1.446       .  S
C1137      N1139   1.158       .  T
C1138      N1140   1.156       .  T
C1141      C1146   1.418       .  A
C1142      C1143   1.404       .  A
C1142      H1147   1.085       .  S
C1143      C1150   1.445       .  S
C1144      C1145   1.402       .  A
C1145      C1146   1.403       .  A
C1145      H1148   1.077       .  S
C1146      C1149   1.445       .  S
C1149      N1151   1.157       .  T
C1150      N1152   1.157       .  T
C1153      C1154   1.403       .  A
C1153      C1158   1.417       .  A
C1154      C1155   1.409       .  A
C1154      H1159   1.084       .  S
C1155      C1156   1.419       .  A
C1155      C1162   1.444       .  S
C1156      C1157   1.403       .  A
C1157      C1158   1.406       .  A
C1157      H1596   1.084       .  S
C1158      C1161   1.442       .  S
H1160      C1593   1.084       .  S
C1161      N1163   1.157       .  T
C1162      N1164   1.157       .  T
C1165      C1166   1.410       .  A
C1165      C1170   1.412       .  A
C1166      C1167   1.401       .  A
C1166      H1171   1.085       .  S
C1167      C1168   1.403       .  A
C1167      C1174   1.442       .  S
C1168      C1169   1.402       .  A
C1169      C1170   1.401       .  A
C1169      H1172   1.085       .  S
C1170      C1173   1.439       .  S
C1173      N1175   1.156       .  T
C1174      N1176   1.157       .  T
C1177      C1178   1.401       .  A
C1177      C1182   1.414       .  A
C1178      C1179   1.404       .  A
C1178      H1183   1.077       .  S
C1179      C1180   1.420       .  A
C1179      C1186   1.444       .  S
C1180      C1181   1.404       .  A
C1181      C1182   1.402       .  A
C1181      H1184   1.085       .  S
C1182      C1185   1.442       .  S
C1185      N1187   1.157       .  T
C1186      N1188   1.157       .  T
C1189      C1190   1.404       .  A
C1189      C1194   1.410       .  A
C1190      C1191   1.402       .  A
C1190      H1195   1.085       .  S
C1191      C1192   1.416       .  A
C1191      C1198   1.439       .  S
C1193      H1196   1.085       .  S
C1197      N1199   1.157       .  T
C1198      N1200   1.157       .  T
C1201      C1202   1.406   1_455  A
C1201      C1206   1.405       .  A
C1202      C1203   1.402       .  A
C1202      H1207   1.085       .  S
C1203      C1204   1.412       .  A
C1203      C1210   1.444       .  S
C1204      C1205   1.413   1_655  A
C1205      C1206   1.404       .  A
C1209      N1211   1.157       .  T
C1210      N1212   1.157       .  T
C1213      C1214   1.406       .  A
C1213      C1218   1.411       .  A
C1214      C1215   1.401       .  A
C1214      H1219   1.084       .  S
C1215      C1216   1.412       .  A
C1215      C1222   1.435       .  S
C1216      C1217   1.413       .  A
C1217      C1218   1.405       .  A
C1217      H1220   1.084       .  S
C1218      C1221   1.442       .  S
C1221      N1223   1.157       .  T
C1222      N1224   1.154       .  T
C1225      C1226   1.403       .  A
C1225      C1230   1.415       .  A
C1226      C1227   1.407       .  A
C1226      H1231   1.084       .  S
C1227      C1228   1.415       .  A
C1227      C1234   1.442       .  S
C1228      C1229   1.403       .  A
C1229      C1230   1.405       .  A
C1229      H1232   1.085       .  S
C1230      C1233   1.444       .  S
C1233      N1235   1.157       .  T
C1234      N1236   1.157       .  T
C1237      C1238   1.409       .  A
C1237      C1242   1.419       .  A
C1238      C1239   1.409       .  A
C1238      H1243   1.077       .  S
C1239      C1240   1.414       .  A
C1239      C1246   1.445       .  S
C1240      C1241   1.400       .  A
C1241      C1242   1.402       .  A
C1241      H1244   1.085       .  S
C1242      C1245   1.439       .  S
C1245      N1247   1.156       .  T
C1246      N1248   1.157       .  T
C1249      C1250   1.397       .  A
C1249      C1254   1.410       .  A
C1250      C1251   1.397       .  A
C1250      H1255   1.086       .  S
C1251      C1252   1.421       .  A
C1251      C1258   1.442       .  S
C1252      C1253   1.413       .  A
C1253      C1254   1.415       .  A
C1253      H1256   1.080       .  S
C1254      C1257   1.443       .  S
C1257      N1259   1.157       .  T
C1258      N1696   1.157   1_545  T
N1260      C1694   1.157       .  T
C1261      C1698   1.404   1_545  A
C1261      C1702   1.412       .  A
C1262      C1697   1.403       .  A
C1262      C1263   1.407       .  A
C1262      H1703   1.085       .  S
C1263      C1264   1.419       .  A
C1263      C1270   1.444       .  S
C1264      C1265   1.406       .  A
C1265      C1266   1.399       .  A
C1265      H1268   1.084       .  S
C1266      C1697   1.409       .  A
C1266      C1705   1.444       .  S
H1267      C1698   1.083       .  S
C1269      C1702   1.446       .  S
C1269      N1271   1.157       .  T
C1270      N1272   1.158       .  T
C1273      C1274   1.407       .  A
C1273      C1278   1.419       .  A
C1274      C1275   1.406       .  A
C1274      H1279   1.085       .  S
C1275      C1276   1.413       .  A
C1275      C1282   1.442       .  S
C1276      C1277   1.400       .  A
C1277      C1278   1.402       .  A
C1277      H1280   1.078       .  S
C1278      C1281   1.445       .  S
C1281      N1283   1.157       .  T
C1282      N1284   1.157       .  T
C1285      C1286   1.402       .  A
C1285      C1290   1.411       .  A
C1286      C1287   1.400       .  A
C1286      H1291   1.085       .  S
C1287      C1288   1.415       .  A
C1287      C1294   1.442       .  S
C1288      C1289   1.405       .  A
C1289      C1290   1.402       .  A
C1289      H1292   1.081       .  S
C1290      C1293   1.443       .  S
C1294      N1296   1.157       .  T
C1297      C1298   1.402       .  A
C1297      C1302   1.413       .  A
C1298      C1299   1.408       .  A
C1298      H1303   1.085       .  S
C1299      C1300   1.422       .  A
C1299      C1306   1.444       .  S
C1300      C1301   1.407       .  A
C1301      C1302   1.398       .  A
C1301      H1304   1.085       .  S
C1302      C1305   1.446       .  S
C1305      N1307   1.157       .  T
C1306      N1308   1.158       .  T
N1309      C1313   1.362       .  A
N1309      C1310   1.361       .  A
N1309      C1712   1.441       .  S
C1310      C1311   1.370       .  A
C1310      C1724   1.485       .  S
C1311      C1312   1.363       .  A
C1311      H1314   1.069       .  S
C1312      C1313   1.379       .  A
C1312      H1315   1.081       .  S
C1313      C1733   1.483       .  S
Zn1316     O1320   1.944       .  S
Zn1316     O1321   1.999       .  S
Zn1316     O1325   1.998       .  S
Zn1316     O1332   1.974       .  S
Zn1317     O1320   1.984       .  S
Zn1317     O1322   2.016       .  S
Zn1317     O1324   2.096       .  S
Zn1317     O1328   2.055       .  S
Zn1318     O1320   1.972       .  S
Zn1318     O1323   2.046       .  S
Zn1318     O1326   2.020       .  S
Zn1318     O1329   2.031       .  S
Zn1319     O1320   1.961       .  S
Zn1319     O1327   2.029       .  S
Zn1319     O1330   2.021       .  S
Zn1319     O1331   2.072       .  S
O1321      C1333   1.271       .  A
O1322      C1334   1.276       .  A
O1323      C1335   1.277       .  A
O1324      C1333   1.281       .  A
O1325      C1335   1.269       .  A
O1326      C1334   1.276       .  A
O1327      C1336   1.275       .  A
O1328      C1337   1.277       .  A
O1329      C1336   1.272       .  A
O1330      C1337   1.275       .  A
O1331      C1338   1.281       .  A
O1332      C1338   1.270       .  A
C1333      C1685   1.490       .  S
C1334      C1709   1.486       .  S
C1335      C1676   1.483       .  S
C1336      C1700   1.498       .  S
C1337      C1661   1.493       .  S
C1338      C1652   1.497       .  S
N1339      C1649   1.448       .  S
C1340      C1341   1.380   1_455  A
C1340      C1628   1.513       .  S
C1341      C1342   1.363       .  A
C1341      H1344   1.073       .  S
C1342      C1343   1.372   1_655  A
C1342      H1345   1.081       .  S
C1343      C1637   1.484       .  S
N1346      C1350   1.361       .  A
N1346      C1347   1.360       .  A
N1346      C1604   1.437       .  S
C1347      C1348   1.372       .  A
C1347      C1613   1.486       .  S
C1348      C1349   1.366       .  A
C1348      H1351   1.072       .  S
C1349      C1350   1.378       .  A
C1349      H1352   1.081       .  S
C1350      C1697   1.481       .  S
Zn1353     O1357   1.981       .  S
Zn1353     O1362   2.044       .  S
Zn1353     O1369   2.082       .  S
Zn1354     O1359   2.018       .  S
Zn1354     O1361   2.010       .  S
Zn1355     O1357   1.976       .  S
Zn1355     O1360   2.020       .  S
Zn1355     O1363   2.063       .  S
Zn1355     O1366   2.081       .  S
Zn1356     O1357   1.948   1_455  S
Zn1356     O1364   1.985   1_455  S
Zn1356     O1368   2.001       .  S
O1358      C1370   1.274       .  A
O1359      C1371   1.274       .  A
O1360      C1372   1.276       .  A
O1361      C1370   1.275       .  A
O1362      C1372   1.277       .  A
O1364      C1373   1.270       .  A
O1366      C1373   1.282       .  A
O1367      C1374   1.268       .  A
O1368      C1375   1.269   1_455  A
O1369      C1375   1.280       .  A
C1370      C1736   1.494       .  S
C1371      C1592   1.494       .  S
C1372      C1601   1.487       .  S
C1373      C1640   1.503       .  S
C1374      C1565   1.474       .  S
C1375      C1577   1.496   1_655  S
N1376      C1377   1.361       .  A
C1377      C1378   1.374       .  A
C1377      C1553   1.489       .  S
C1378      H1381   1.077       .  S
C1379      C1380   1.384       .  A
C1379      H1382   1.081       .  S
C1380      C1688   1.502       .  S
N1383      C1387   1.370       .  A
N1383      C1384   1.363       .  A
N1383      C1529   1.448       .  S
C1384      C1385   1.372       .  A
C1384      C1589   1.484       .  S
C1385      C1386   1.362       .  A
C1385      H1388   1.072       .  S
C1386      C1387   1.378       .  A
C1386      H1389   1.082       .  S
C1387      C1541   1.487       .  S
Zn1390     O1394   1.985   1_556  S
Zn1390     O1395   2.089   1_556  S
Zn1390     O1399   2.069   1_556  S
Zn1390     O1406   2.043       .  S
Zn1391     O1394   1.960       .  S
Zn1391     O1396   1.986       .  S
Zn1391     O1398   1.969       .  S
Zn1391     O1402   2.025   1_554  S
Zn1392     O1394   1.985       .  S
Zn1392     O1397   2.044       .  S
Zn1392     O1400   2.070       .  S
Zn1392     O1403   2.063       .  S
Zn1393     O1394   1.954   1_556  S
Zn1393     O1401   2.020       .  S
Zn1393     O1404   2.057       .  S
Zn1393     O1405   2.010       .  S
O1395      C1407   1.282       .  A
O1396      C1408   1.269       .  A
O1397      C1409   1.276       .  A
O1398      C1407   1.268       .  A
O1399      C1409   1.280       .  A
O1400      C1408   1.280       .  A
O1401      C1410   1.277       .  A
O1402      C1411   1.271       .  A
O1403      C1410   1.279   1_554  A
O1404      C1411   1.279       .  A
O1405      C1412   1.273       .  A
O1406      C1412   1.277       .  A
C1407      C1532   1.480       .  S
C1408      C1616   1.488       .  S
C1409      C1517   1.500       .  S
C1410      C1493   1.494       .  S
C1411      C1508   1.494       .  S
C1412      C1556   1.493       .  S
N1413      C1496   1.444       .  S
C1414      C1415   1.380   1_455  A
C1414      C1580   1.503       .  S
C1415      C1416   1.364       .  A
C1415      H1418   1.076       .  S
C1416      C1417   1.377   1_655  A
C1416      H1419   1.081       .  S
C1417      C1481   1.492       .  S
N1420      C1421   1.366   1_545  A
C1421      C1422   1.368       .  A
C1421      C1664   1.484       .  S
C1422      H1425   1.061       .  S
C1423      C1424   1.377       .  A
C1423      H1426   1.082       .  S
C1424      C1505   1.493       .  S
N1427      C1431   1.363       .  A
N1427      C1428   1.366       .  A
N1427      C1457   1.443       .  S
C1428      C1429   1.377       .  A
C1428      C1673   1.500       .  S
C1429      C1430   1.367       .  A
C1429      H1432   1.072       .  S
C1430      C1431   1.374       .  A
C1430      H1433   1.080       .  S
C1431      C1520   1.485       .  S
Zn1434     O1438   1.959       .  S
Zn1434     O1439   2.066       .  S
Zn1434     O1443   2.042       .  S
Zn1434     O1450   2.020       .  S
Zn1435     O1440   2.013   1_545  S
Zn1435     O1442   1.991   1_545  S
Zn1436     O1438   1.967   1_556  S
Zn1436     O1441   2.022       .  S
Zn1436     O1447   2.023       .  S
Zn1437     O1438   1.978       .  S
Zn1437     O1445   2.025   1_554  S
Zn1437     O1449   2.053       .  S
O1440      C1452   1.270   1_554  A
O1441      C1453   1.274       .  A
O1442      C1451   1.271       .  A
O1443      C1453   1.278   1_554  A
O1444      C1452   1.279       .  A
O1445      C1454   1.276       .  A
O1446      C1455   1.264       .  A
O1447      C1454   1.274       .  A
O1448      C1455   1.284       .  A
O1449      C1456   1.278       .  A
O1450      C1456   1.274       .  A
C1451      C1625   1.486       .  S
C1452      C1484   1.508       .  S
C1453      C1472   1.478       .  S
C1454      C1721   1.484       .  S
C1455      C1460   1.483       .  S
C1456      C1544   1.505       .  S
C1457      C1458   1.395       .  A
C1457      C1462   1.414       .  A
C1458      C1459   1.398       .  A
C1458      H1463   1.082       .  S
C1459      C1460   1.420       .  A
C1459      C1466   1.446       .  S
C1460      C1461   1.403       .  A
C1461      C1462   1.407       .  A
C1461      H1464   1.085       .  S
C1462      C1465   1.442       .  S
C1465      N1467   1.157   1_554  T
C1469      C1470   1.411       .  A
C1469      C1474   1.414       .  A
C1470      C1471   1.408       .  A
C1471      C1472   1.409       .  A
C1472      C1473   1.401       .  A
C1473      C1474   1.399       .  A
C1473      H1476   1.086       .  S
C1474      C1477   1.442       .  S
C1477      N1479   1.157       .  T
C1478      N1480   1.157       .  T
C1481      C1486   1.414   1_455  A
C1482      C1483   1.405       .  A
C1482      H1487   1.085       .  S
C1483      C1490   1.445   1_556  S
C1484      C1485   1.405       .  A
C1485      C1486   1.403       .  A
C1485      H1488   1.084       .  S
C1486      C1489   1.442       .  S
C1489      N1491   1.156       .  T
C1490      N1492   1.158       .  T
C1493      C1494   1.408       .  A
C1493      C1498   1.414       .  A
C1494      C1495   1.402       .  A
C1494      H1499   1.085       .  S
C1495      C1496   1.406       .  A
C1495      C1502   1.440       .  S
C1496      C1497   1.404       .  A
C1497      C1498   1.407       .  A
C1497      H1500   1.085       .  S
C1498      C1501   1.438   1_556  S
C1501      N1503   1.156       .  T
C1502      N1504   1.157       .  T
C1505      C1506   1.407       .  A
C1505      C1510   1.412       .  A
C1506      C1507   1.395       .  A
C1506      H1511   1.086       .  S
C1507      C1508   1.410       .  A
C1507      C1514   1.444       .  S
C1508      C1509   1.413       .  A
C1509      C1510   1.416       .  A
C1509      H1512   1.084       .  S
C1510      C1513   1.443       .  S
C1514      N1516   1.157       .  T
C1517      C1518   1.407       .  A
C1517      C1522   1.417       .  A
C1518      C1519   1.408       .  A
C1518      H1523   1.084       .  S
C1519      C1526   1.444       .  S
C1520      C1521   1.402       .  A
C1521      H1524   1.084       .  S
C1522      C1525   1.442   1_554  S
C1525      N1527   1.157       .  T
C1526      N1528   1.157       .  T
C1529      C1530   1.402       .  A
C1529      C1534   1.412       .  A
C1530      C1531   1.397       .  A
C1530      H1535   1.082       .  S
C1531      C1532   1.412       .  A
C1531      C1538   1.446       .  S
C1532      C1533   1.406       .  A
C1533      C1534   1.411       .  A
C1533      H1536   1.084       .  S
C1534      C1537   1.439       .  S
C1537      N1539   1.156       .  T
C1538      N1540   1.157       .  T
C1541      C1542   1.407       .  A
C1541      C1546   1.406       .  A
C1542      C1543   1.404       .  A
C1542      H1547   1.085       .  S
C1543      C1544   1.418       .  A
C1543      C1550   1.445       .  S
C1544      C1545   1.414       .  A
C1545      C1546   1.406       .  A
C1545      H1548   1.084       .  S
C1546      C1549   1.443       .  S
C1549      N1551   1.157       .  T
C1553      C1554   1.403       .  A
C1553      C1558   1.412       .  A
C1554      C1555   1.403       .  A
C1554      H1559   1.082       .  S
C1555      C1556   1.416       .  A
C1555      C1562   1.443       .  S
C1556      C1557   1.408       .  A
C1557      C1558   1.402       .  A
C1557      H1560   1.083       .  S
C1558      C1561   1.444       .  S
C1561      N1563   1.157       .  T
C1562      N1564   1.157       .  T
C1565      C1566   1.393       .  A
C1565      C1570   1.400       .  A
C1566      C1567   1.403       .  A
C1566      H1571   1.086       .  S
C1567      C1568   1.432       .  A
C1567      C1574   1.438       .  S
C1568      C1569   1.420       .  A
C1569      C1570   1.403       .  A
C1569      H1572   1.070       .  S
C1570      C1573   1.445       .  S
C1573      N1575   1.157       .  T
C1574      N1576   1.157       .  T
C1577      C1582   1.418       .  A
C1578      C1579   1.407       .  A
C1578      H1583   1.084       .  S
C1579      C1586   1.444       .  S
C1580      C1581   1.403       .  A
C1581      C1582   1.406       .  A
C1581      H1584   1.076       .  S
C1582      C1585   1.445       .  S
C1585      N1587   1.157       .  T
C1586      N1588   1.157       .  T
C1589      C1590   1.401       .  A
C1589      C1594   1.410       .  A
C1590      C1591   1.401       .  A
C1590      H1595   1.084       .  S
C1591      C1592   1.416       .  A
C1591      C1598   1.443       .  S
C1592      C1593   1.407       .  A
C1593      C1594   1.408       .  A
C1594      C1597   1.441       .  S
C1597      N1599   1.157       .  T
C1598      N1600   1.157       .  T
C1601      C1602   1.410       .  A
C1601      C1606   1.413       .  A
C1602      C1603   1.401       .  A
C1602      H1607   1.085       .  S
C1603      C1604   1.403       .  A
C1603      C1610   1.441       .  S
C1604      C1605   1.403       .  A
C1605      C1606   1.403       .  A
C1605      H1608   1.085       .  S
C1606      C1609   1.439       .  S
C1609      N1611   1.156       .  T
C1610      N1612   1.157       .  T
C1613      C1614   1.400       .  A
C1613      C1618   1.412       .  A
C1614      C1615   1.401       .  A
C1614      H1619   1.078       .  S
C1615      C1616   1.418       .  A
C1615      C1622   1.445       .  S
C1616      C1617   1.405       .  A
C1617      C1618   1.404       .  A
C1617      H1620   1.084       .  S
C1618      C1621   1.443       .  S
C1621      N1623   1.157       .  T
C1622      N1624   1.157       .  T
C1625      C1626   1.402   1_655  A
C1625      C1630   1.407       .  A
C1626      C1627   1.404       .  A
C1626      H1631   1.085       .  S
C1627      C1628   1.423       .  A
C1627      C1634   1.439       .  S
C1629      H1632   1.085       .  S
C1633      N1635   1.157       .  T
C1634      N1636   1.157       .  T
C1637      C1638   1.405   1_455  A
C1637      C1642   1.403       .  A
C1638      C1639   1.404       .  A
C1638      H1643   1.081       .  S
C1639      C1640   1.416       .  A
C1639      C1646   1.443       .  S
C1640      C1641   1.417   1_655  A
C1641      C1642   1.404       .  A
C1645      N1647   1.157       .  T
C1646      N1648   1.157       .  T
C1649      C1650   1.405       .  A
C1649      C1654   1.410       .  A
C1650      C1651   1.396       .  A
C1650      H1655   1.084       .  S
C1651      C1652   1.412       .  A
C1651      C1658   1.436       .  S
C1652      C1653   1.413       .  A
C1653      C1654   1.401       .  A
C1653      H1656   1.084       .  S
C1654      C1657   1.441       .  S
C1657      N1659   1.157       .  T
C1658      N1660   1.154       .  T
C1661      C1662   1.403       .  A
C1661      C1666   1.417       .  A
C1662      C1663   1.406       .  A
C1662      H1667   1.084       .  S
C1663      C1664   1.415       .  A
C1663      C1670   1.442       .  S
C1664      C1665   1.400       .  A
C1665      C1666   1.403       .  A
C1665      H1668   1.085       .  S
C1666      C1669   1.443       .  S
C1669      N1671   1.157       .  T
C1670      N1672   1.157       .  T
C1673      C1674   1.407       .  A
C1673      C1678   1.421       .  A
C1674      C1675   1.405       .  A
C1674      H1679   1.077       .  S
C1675      C1676   1.413       .  A
C1675      C1682   1.445       .  S
C1676      C1677   1.399       .  A
C1677      C1678   1.400       .  A
C1677      H1680   1.086       .  S
C1678      C1681   1.442       .  S
C1681      N1683   1.157       .  T
C1682      N1684   1.158       .  T
C1685      C1686   1.401       .  A
C1685      C1690   1.414       .  A
C1686      C1687   1.399       .  A
C1686      H1691   1.085       .  S
C1687      C1688   1.420       .  A
C1687      C1694   1.446       .  S
C1688      C1689   1.409       .  A
C1689      C1690   1.415       .  A
C1689      H1692   1.084       .  S
C1690      C1693   1.442       .  S
C1693      N1695   1.157       .  T
C1698      C1699   1.410       .  A
C1699      C1700   1.420       .  A
C1699      C1706   1.443       .  S
C1700      C1701   1.406       .  A
C1701      C1702   1.398   1_565  A
C1701      H1704   1.082       .  S
C1705      N1707   1.157       .  T
C1706      N1708   1.157       .  T
C1709      C1710   1.405       .  A
C1709      C1714   1.418       .  A
C1710      C1711   1.403       .  A
C1710      H1715   1.085       .  S
C1711      C1712   1.412       .  A
C1711      C1718   1.442       .  S
C1712      C1713   1.397       .  A
C1713      C1714   1.399       .  A
C1713      H1716   1.080       .  S
C1714      C1717   1.445       .  S
C1717      N1719   1.157       .  T
C1718      N1720   1.157       .  T
C1721      C1722   1.400       .  A
C1721      C1726   1.414       .  A
C1722      C1723   1.400       .  A
C1722      H1727   1.085       .  S
C1723      C1724   1.415       .  A
C1723      C1730   1.442       .  S
C1724      C1725   1.405       .  A
C1725      C1726   1.404       .  A
C1725      H1728   1.081       .  S
C1726      C1729   1.445       .  S
C1730      N1732   1.156       .  T
C1733      C1734   1.403       .  A
C1733      C1738   1.410       .  A
C1734      C1735   1.408       .  A
C1734      H1739   1.084       .  S
C1735      C1736   1.420       .  A
C1735      C1742   1.444       .  S
C1736      C1737   1.407       .  A
C1737      C1738   1.394       .  A
C1737      H1740   1.084       .  S
C1738      C1741   1.446       .  S
C1741      N1743   1.157       .  T
C1742      N1744   1.157       .  T
