geometry optimzed in LAMMPS
_audit_creation_date              2020-11-30 
_audit_creation_method            'lammps2cif' 
_symmetry_space_group_name_H-M    'P1' 
_symmetry_Int_Tables_number       1 
_symmetry_cell_setting            triclinic 
loop_ 
_symmetry_equiv_pos_as_xyz 
  x,y,z 
_cell_length_a                    26.40264358 
_cell_length_b                    26.242943993592874 
_cell_length_c                    36.367639033528306 
_cell_angle_alpha                 90.06068076683782 
_cell_angle_beta                  90.10734108772041 
_cell_angle_gamma                 90.04398676437478 
loop_ 
_atom_site_label 
_atom_site_type_symbol 
_atom_site_fract_x 
_atom_site_fract_y 
_atom_site_fract_z 
_atom_site_charge 
C1          C  0.72196713  0.72280608  0.99594054     0.79600
N2          N  0.70270338  0.70374806  0.46418319    -0.78700
C3          C  0.66853126  0.66496977  0.46473387     0.82100
N4          N  0.65241229  0.64642723  0.49747053    -0.78600
C5          C  0.67043481  0.66552679  0.02921444     0.82200
N6          N  0.70453093  0.70432751  0.02855983    -0.80300
C7          C  0.21548290  0.73938729  0.99562763     0.79600
N8          N  0.23402215  0.71846839  0.46381573    -0.78700
C9          C  0.27048347  0.68197547  0.46478207     0.82100
N10         N  0.28957926  0.66664376  0.49757235    -0.78600
C11         C  0.27199184  0.68742188  0.02941626     0.82200
N12         N  0.23475856  0.72310793  0.02836392    -0.80300
C13         C  0.70445822  0.22376402  0.99575202     0.79600
N14         N  0.68461247  0.23981035  0.46329467    -0.78700
C15         C  0.64493828  0.27265768  0.46269466     0.82100
N16         N  0.62592450  0.29086705  0.49464764    -0.78600
C17         C  0.64624776  0.27642280  0.02718917     0.82200
N18         N  0.68539246  0.24284754  0.02766032    -0.80300
N19         N  0.96236702  0.90330332  0.99453655    -0.37200
N20         N  0.88152312  0.97983312  0.99507823    -0.57800
N21         N  0.95775340  0.06070467  0.99100711    -0.37200
N22         N  0.03833978  0.98427806  0.99646209    -0.57800
C23         C  0.92180930  0.87330066  0.00155978     0.26400
C24         C  0.00450349  0.87560268  0.00166632     0.26400
C25         C  0.91543687  0.08904093  0.99572179     0.26400
C26         C  0.99810563  0.09143073  0.99717111     0.26400
C27         C  0.85280367  0.93737310  0.99169133     0.35000
C28         C  0.85041901  0.01998114  0.98927739     0.35000
C29         C  0.06968228  0.94379146  0.99314436     0.35000
C30         C  0.06726644  0.02639118  0.99219051     0.35000
C31         C  0.93844285  0.82566885  0.01285774    -0.22500
C32         C  0.99054382  0.82710154  0.01286225    -0.22500
C33         C  0.92912589  0.13872420  0.00425474    -0.22500
C34         C  0.98118346  0.14021381  0.00519801    -0.22500
C35         C  0.80303810  0.95066822  0.98416347    -0.23500
C36         C  0.80153017  0.00293003  0.98264217    -0.23500
C37         C  0.11888319  0.96030717  0.98729571    -0.23500
C38         C  0.11736879  0.01255668  0.98673631    -0.23500
C39         C  0.87020853  0.88678406  0.99672660    -0.18900
C40         C  0.05525118  0.89213381  0.99723750    -0.18900
C41         C  0.04984632  0.07731524  0.99482248    -0.18900
C42         C  0.86475888  0.07193636  0.99159778    -0.18900
H43         H  0.91542499  0.79314543  0.02031198     0.14000
H44         H  0.01532584  0.79594000  0.02034563     0.14000
H45         H  0.90421298  0.17067662  0.00938205     0.14000
H46         H  0.00396314  0.17351643  0.01120116     0.14000
H47         H  0.77105834  0.92537852  0.98031495     0.12300
H48         H  0.76817528  0.02576358  0.97738348     0.12300
H49         H  0.15249932  0.93715833  0.98409413     0.12300
H50         H  0.14959100  0.03750273  0.98292068     0.12300
H51         H  0.96135629  0.93970421  0.98370688     0.25600
H52         H  0.95902966  0.02309736  0.98261561     0.25600
C53         C  0.20442276  0.23549250  0.99390977     0.79600
N54         N  0.22487704  0.25357151  0.46190912    -0.78700
C55         C  0.26202530  0.28930245  0.46254484     0.82100
N56         N  0.27884903  0.30739676  0.49518187    -0.78600
C57         C  0.25954657  0.28976651  0.02724672     0.82200
N58         N  0.22247074  0.25373542  0.02655240    -0.80300
N59         N  0.52539872  0.57292263  0.28867183    -0.06700
N60         N  0.53490195  0.60487974  0.31588843    -0.58800
N61         N  0.55883693  0.53643498  0.20416491    -0.06400
N62         N  0.59201601  0.54257526  0.17744271    -0.61000
N63         N  0.52586027  0.57399462  0.20424552    -0.06000
N64         N  0.53615474  0.60657167  0.17759476    -0.58800
N65         N  0.55824893  0.53523905  0.28880758    -0.05700
N66         N  0.59048860  0.54056038  0.31635576    -0.61300
C67         C  0.57565514  0.58431917  0.33285718     0.95500
C68         C  0.57761444  0.58655440  0.16110662     0.95200
N69         N  0.51448353  0.38341763  0.20269851    -0.06900
N70         N  0.51891733  0.35206812  0.17452827    -0.59400
N71         N  0.55209940  0.41546647  0.28743334    -0.05000
N72         N  0.58387263  0.40610911  0.31460274    -0.60700
N73         N  0.51499486  0.38205242  0.28735453    -0.06900
N74         N  0.52066862  0.34940673  0.31465773    -0.59700
N75         N  0.55191070  0.41652722  0.20304808    -0.04700
N76         N  0.58283234  0.40813577  0.17519897    -0.60800
Mn77       Mn  0.55689124  0.47580176  0.24587010     1.18400
C78         C  0.56159221  0.36798596  0.15755215     0.97500
C79         C  0.56393500  0.36479036  0.33140072     0.98200
N80         N  0.40600296  0.58023991  0.20414087    -0.06900
N81         N  0.39951800  0.61391339  0.17759335    -0.63300
N82         N  0.36922077  0.54480241  0.28855940    -0.05800
N83         N  0.33770740  0.55281820  0.31608744    -0.63900
N84         N  0.40578538  0.57891681  0.28877077    -0.06500
N85         N  0.39961168  0.61107564  0.31639475    -0.63500
N86         N  0.36875295  0.54690496  0.20411767    -0.05400
N87         N  0.33606932  0.55737688  0.17768436    -0.64200
Mn88       Mn  0.46583097  0.57819159  0.24640366     1.10700
C89         C  0.35562570  0.59931731  0.16139191     0.98800
C90         C  0.35694740  0.59436314  0.33317834     0.98800
N91         N  0.39636508  0.38831118  0.28708964    -0.06500
N92         N  0.38795297  0.35619691  0.31423969    -0.61800
N93         N  0.36275041  0.42673965  0.20277357    -0.05800
N94         N  0.33028556  0.42143386  0.17540697    -0.58600
N95         N  0.39546466  0.38894115  0.20292373    -0.07100
N96         N  0.38565631  0.35681804  0.17585087    -0.61400
N97         N  0.36241987  0.42495905  0.28708959    -0.06100
N98         N  0.32976353  0.41826853  0.31411012    -0.58600
Mn99       Mn  0.45532276  0.38407422  0.24502000     1.20200
Mn100      Mn  0.36422994  0.48598369  0.24559352     1.10100
Cl101      Cl  0.46056382  0.48104687  0.24567497    -0.86600
C102        C  0.34617617  0.37517870  0.33064666     0.95800
C103        C  0.34507906  0.37774173  0.15890286     0.95600
C104        C  0.30598003  0.30472658  0.12591840    -0.26900
C105        C  0.32075077  0.35609768  0.12595331    -0.15000
C106        C  0.31387350  0.38580258  0.09413582     0.35600
C107        C  0.29362136  0.36304107  0.06245917    -0.26400
C108        C  0.27867530  0.31160877  0.06217471    -0.15600
C109        C  0.28439122  0.28219655  0.09441490     0.36700
N110        N  0.26950566  0.22949991  0.09484969    -0.89900
H111        H  0.31138591  0.28217545  0.15056132     0.17800
H112        H  0.28918092  0.38580110  0.03781855     0.17800
N113        N  0.32943344  0.43834094  0.09359161    -0.88900
H114        H  0.27571214  0.21362509  0.12082763     0.35200
H115        H  0.29303724  0.20991045  0.07657971     0.40300
H116        H  0.30497541  0.45861039  0.11078439     0.39900
H117        H  0.32479186  0.45378858  0.06730937     0.34800
C118        C  0.35580919  0.33911336  0.39269927    -0.26900
C119        C  0.32353429  0.35286303  0.36378801    -0.15000
C120        C  0.27104773  0.34371353  0.36657406     0.35600
C121        C  0.25182640  0.32112128  0.39868050    -0.26400
C122        C  0.28395799  0.30900144  0.42816063    -0.15600
C123        C  0.33657610  0.31761316  0.42504169     0.36700
N124        N  0.37030070  0.30401773  0.45454480    -0.89900
H125        H  0.39618710  0.34576337  0.39016456     0.17800
H126        H  0.21149729  0.31422746  0.40113567     0.17800
N127        N  0.23780459  0.35581976  0.33648011    -0.88900
H128        H  0.40774616  0.31305900  0.44784893     0.35200
H129        H  0.36879895  0.26442698  0.45755144     0.40300
H130        H  0.23639952  0.39548630  0.33423264     0.39900
H131        H  0.20084866  0.34395043  0.34224473     0.34800
C132        C  0.09917243  0.14462796  0.46251137    -0.26900
C133        C  0.08852533  0.11867657  0.99563466    -0.15000
C134        C  0.11825843  0.12898850  0.02716799     0.35600
C135        C  0.15528928  0.16720024  0.02566331    -0.26400
C136        C  0.16421809  0.19536980  0.99339026    -0.15600
C137        C  0.13721452  0.18209872  0.46079777     0.36700
N138        N  0.14717332  0.20709622  0.42639343    -0.89900
H139        H  0.07792441  0.13488458  0.43795685     0.17800
H140        H  0.17764284  0.17445254  0.05013231     0.17800
N141        N  0.11176264  0.10199740  0.06123746    -0.88900
H142        H  0.12030135  0.19664218  0.40661550     0.35200
H143        H  0.18184911  0.19336381  0.41672116     0.40300
H144        H  0.08197001  0.07592630  0.05997552     0.39900
H145        H  0.14479849  0.08105610  0.06600904     0.34800
C146        C  0.77477714  0.17868625  0.46338037    -0.26900
C147        C  0.74657646  0.18582209  0.99588391    -0.15000
C148        C  0.75780075  0.15491991  0.02682020     0.35600
C149        C  0.79601580  0.11778936  0.02422736    -0.26400
C150        C  0.82384916  0.11103283  0.99183334    -0.15600
C151        C  0.81304208  0.14185312  0.46088683     0.36700
N152        N  0.83948806  0.13670460  0.42652846    -0.89900
H153        H  0.76675986  0.20164369  0.43931928     0.17800
H154        H  0.80462252  0.09408463  0.04781071     0.21400
N155        N  0.72994138  0.16022022  0.06052940    -0.88900
H156        H  0.81307810  0.12534313  0.40668520     0.35200
H157        H  0.86687775  0.10812055  0.42755234     0.40300
H158        H  0.74172793  0.19419940  0.07289461     0.39900
H159        H  0.73954928  0.13124979  0.07898005     0.34800
C160        C  0.57319596  0.29716725  0.06685651    -0.26900
C161        C  0.62577790  0.29792189  0.06151135    -0.15000
C162        C  0.65704286  0.32278039  0.08749035     0.35600
C163        C  0.63524924  0.34568143  0.11837419    -0.26400
C164        C  0.58271894  0.34416372  0.12412100    -0.15600
C165        C  0.55122291  0.32008205  0.09787779     0.36700
N166        N  0.49709069  0.32012126  0.10225135    -0.89900
H167        H  0.54915480  0.27900182  0.04650086     0.17800
H168        H  0.65965327  0.36458546  0.13813302     0.17800
N169        N  0.71067810  0.32714917  0.08251097    -0.88900
H170        H  0.47960319  0.30048124  0.08064820     0.35200
H171        H  0.48482481  0.35792087  0.10046653     0.40300
H172        H  0.71750582  0.34449009  0.05712506     0.39900
H173        H  0.72639969  0.29064797  0.08225840     0.34800
C174        C  0.65626075  0.32098719  0.40550953    -0.26900
C175        C  0.62450718  0.29139533  0.42766661    -0.15000
C176        C  0.57322708  0.28438939  0.41750783     0.35600
C177        C  0.55481511  0.30848956  0.38585183    -0.26400
C178        C  0.58606137  0.33970245  0.36420221    -0.15600
C179        C  0.63757984  0.34586245  0.37413796     0.36700
N180        N  0.67094245  0.37701795  0.35249032    -0.89900
H181        H  0.69543463  0.32641618  0.41361990     0.17800
H182        H  0.51535791  0.30324906  0.37847097     0.17800
N183        N  0.53881887  0.25328259  0.43840876    -0.88900
H184        H  0.70830783  0.37353230  0.36172914     0.35200
H185        H  0.66085552  0.41499908  0.35711358     0.40300
H186        H  0.55682308  0.23562582  0.46053498     0.39900
H187        H  0.52637796  0.22382561  0.42123503     0.34800
C188        C  0.16370019  0.80577335  0.02770515    -0.26900
C189        C  0.17470320  0.77912130  0.99499749    -0.15000
C190        C  0.14953979  0.79393229  0.46198522     0.35600
C191        C  0.11008252  0.82992836  0.46378823    -0.26400
C192        C  0.09604939  0.85287807  0.99767636    -0.15600
C193        C  0.12505209  0.84233481  0.02947988     0.36700
N194        N  0.11667041  0.86794115  0.06393647    -0.89900
H195        H  0.18540921  0.79838300  0.05243195     0.17800
H196        H  0.09044992  0.84107029  0.43886455     0.17800
N197        N  0.16344173  0.77278504  0.42694677    -0.88900
H198        H  0.10550004  0.84044991  0.08306760     0.35200
H199        H  0.08708937  0.89417081  0.06229333     0.40300
H200        H  0.19906305  0.78746141  0.42020834     0.39900
H201        H  0.12838173  0.77484569  0.90907058     0.34800
C202        C  0.26100812  0.64523609  0.08960903    -0.26900
C203        C  0.29313377  0.67014575  0.06478931    -0.15000
C204        C  0.34536095  0.67465716  0.07309051     0.35600
C205        C  0.36432014  0.65244715  0.10528612    -0.26400
C206        C  0.33270450  0.62535130  0.12930570    -0.15600
C207        C  0.28020397  0.62268906  0.12182444     0.36700
N208        N  0.24659769  0.59712318  0.14681683    -0.89900
H209        H  0.22099130  0.64213110  0.08327145     0.17800
H210        H  0.40449412  0.65548060  0.11108771     0.17800
N211        N  0.38014648  0.70210103  0.05002693    -0.88900
H212        H  0.20938657  0.59798672  0.13695058     0.35200
H213        H  0.24674015  0.61764893  0.17147764     0.40300
H214        H  0.36188917  0.72045090  0.02830831     0.39900
H215        H  0.40522103  0.67565042  0.03862938     0.34800
C216        C  0.31619885  0.69062535  0.40583689    -0.26900
C217        C  0.28983420  0.65928005  0.43046207    -0.15000
C218        C  0.28471664  0.60665442  0.42260681     0.35600
C219        C  0.30653743  0.58684000  0.39054308    -0.26400
C220        C  0.33399526  0.61787775  0.36627299    -0.15600
C221        C  0.33854606  0.67049516  0.37385393     0.36700
N222        N  0.36529986  0.70338893  0.34897074    -0.89900
H223        H  0.32002296  0.73088651  0.41193326     0.17800
H224        H  0.30240624  0.54650753  0.38479654     0.17800
N225        N  0.25669775  0.57238593  0.44578808    -0.88900
H226        H  0.36572669  0.74080965  0.35886567     0.35200
H227        H  0.34505399  0.70405051  0.32423686     0.40300
H228        H  0.23910618  0.59121274  0.46755842     0.39900
H229        H  0.28243208  0.54655356  0.45718025     0.34800
C230        C  0.76570523  0.79600906  0.02662562    -0.26900
C231        C  0.76052077  0.76444045  0.99549322    -0.15000
C232        C  0.79161609  0.77406810  0.46470931     0.35600
C233        C  0.82695265  0.81424494  0.46571911    -0.26400
C234        C  0.83209130  0.84491836  0.99678766    -0.15600
C235        C  0.80109141  0.83595129  0.02744887     0.36700
N236        N  0.80571675  0.86729477  0.05953274    -0.89900
H237        H  0.74188417  0.79006245  0.05046455     0.17800
H238        H  0.85104016  0.82133772  0.44217433     0.17800
N239        N  0.78850953  0.74209223  0.43265902    -0.88900
H240        H  0.81595819  0.84284993  0.58204105     0.35200
H241        H  0.77049309  0.88405103  0.06458556     0.40300
H242        H  0.80238983  0.70435760  0.94111777     0.39900
H243        H  0.81547847  0.75290142  0.91280973     0.34800
C244        C  0.62202611  0.67878884  0.08677828    -0.26900
C245        C  0.65037970  0.64615856  0.06430987    -0.15000
C246        C  0.65695859  0.59484676  0.07461158     0.35600
C247        C  0.63396335  0.57685461  0.10688590    -0.26400
C248        C  0.60364872  0.60878210  0.12870749    -0.15600
C249        C  0.59847016  0.66068459  0.11891868     0.36700
N250        N  0.56959888  0.69486241  0.14156701    -0.89900
H251        H  0.61738685  0.71827905  0.07875607     0.17800
H252        H  0.63865163  0.53721353  0.11444825     0.17800
N253        N  0.68762574  0.56141349  0.05261999    -0.88900
H254        H  0.56886229  0.73137478  0.13009816     0.35200
H255        H  0.58848081  0.69814213  0.16675971     0.40300
H256        H  0.66836679  0.55501003  0.02794930     0.39900
H257        H  0.69115192  0.52580465  0.06523986     0.34800
C258        C  0.63334608  0.67709009  0.40177361    -0.26900
C259        C  0.64763707  0.64383422  0.43013543    -0.15000
C260        C  0.63951439  0.59093717  0.42582604     0.35600
C261        C  0.61645294  0.57259036  0.39357645    -0.26400
C262        C  0.60043348  0.60597885  0.36584778    -0.15600
C263        C  0.60918808  0.65888254  0.37004180     0.36700
N264        N  0.59482842  0.69491630  0.34237273    -0.89900
H265        H  0.63950515  0.71772072  0.40479793     0.17800
H266        H  0.61016296  0.53201100  0.39032484     0.17800
N267        N  0.65504980  0.55599415  0.45407342    -0.88900
H268        H  0.55546816  0.69419559  0.33946825     0.35200
H269        H  0.61143073  0.68414304  0.31747309     0.40300
H270        H  0.69452524  0.55783065  0.45599608     0.39900
H271        H  0.64600814  0.51852130  0.44677568     0.34800
C272        C  0.72138145  0.72351772  0.49610697     0.79600
N273        N  0.70351777  0.70294876  0.96398334    -0.78700
C274        C  0.66942447  0.66410940  0.96447622     0.82100
N275        N  0.65315017  0.64558588  0.99717860    -0.78600
C276        C  0.66993536  0.66625775  0.52947150     0.82200
N277        N  0.70411366  0.70498030  0.52875721    -0.80300
C278        C  0.21576520  0.73929675  0.49544388     0.79600
N279        N  0.23388100  0.71882736  0.96395025    -0.78700
C280        C  0.27042684  0.68241207  0.96486154     0.82100
N281        N  0.28950441  0.66697910  0.99763245    -0.78600
C282        C  0.27214442  0.68726201  0.52932049     0.82200
N283        N  0.23501742  0.72305832  0.52820241    -0.80300
C284        C  0.70481691  0.22409560  0.49582642     0.79600
N285        N  0.68422989  0.23949806  0.96323428    -0.78700
C286        C  0.64463190  0.27244322  0.96266883     0.82100
N287        N  0.62572200  0.29071061  0.99464232    -0.78600
C288        C  0.64640511  0.27659946  0.52720787     0.82200
N289        N  0.68561708  0.24310078  0.52771951    -0.80300
N290        N  0.96247991  0.90332195  0.49427949    -0.37200
N291        N  0.88173526  0.98003001  0.49505075    -0.57800
N292        N  0.95805854  0.06076882  0.49073661    -0.37200
N293        N  0.03857765  0.98415364  0.49581637    -0.57800
C294        C  0.92190638  0.87333478  0.50129954     0.26400
C295        C  0.00462939  0.87547753  0.50109191     0.26400
C296        C  0.91582322  0.08922514  0.49546022     0.26400
C297        C  0.99850693  0.09144275  0.49668087     0.26400
C298        C  0.85290740  0.93761216  0.49187623     0.35000
C299        C  0.85063122  0.02023427  0.48943621     0.35000
C300        C  0.06992978  0.94364471  0.49272342     0.35000
C301        C  0.06760542  0.02624623  0.49185189     0.35000
C302        C  0.93853874  0.82555579  0.51226813    -0.22500
C303        C  0.99064504  0.82687872  0.51205610    -0.22500
C304        C  0.92966435  0.13894413  0.50375586    -0.22500
C305        C  0.98173216  0.14032826  0.50454207    -0.22500
C306        C  0.80307253  0.95099790  0.48467653    -0.23500
C307        C  0.80163564  0.00325946  0.48313358    -0.23500
C308        C  0.11924898  0.96013459  0.48735030    -0.23500
C309        C  0.11778888  0.01238171  0.48683571    -0.23500
C310        C  0.87027946  0.88697261  0.49676261    -0.18900
C311        C  0.05539549  0.89198965  0.49662220    -0.18900
C312        C  0.05020547  0.07717835  0.49434748    -0.18900
C313        C  0.86508333  0.07217812  0.49159784    -0.18900
H314        H  0.91551717  0.79299797  0.51963663     0.14000
H315        H  0.01540044  0.79557091  0.51925490     0.14000
H316        H  0.90484782  0.17098583  0.50883979     0.14000
H317        H  0.00461773  0.17362268  0.51035323     0.14000
H318        H  0.77099722  0.92576794  0.48105230     0.12300
H319        H  0.76825410  0.02614242  0.47808219     0.12300
H320        H  0.15291541  0.93697613  0.48447427     0.12300
H321        H  0.15010626  0.03730612  0.48337364     0.12300
H322        H  0.96144461  0.93983863  0.48368023     0.25600
H323        H  0.95921948  0.02309381  0.48252173     0.25600
C324        C  0.20506471  0.23507377  0.49370999     0.79600
N325        N  0.22425285  0.25372540  0.96203305    -0.78700
C326        C  0.26170447  0.28914897  0.96255859     0.82100
N327        N  0.27883421  0.30713036  0.99514660    -0.78600
C328        C  0.25953403  0.28982795  0.52721606     0.82200
N329        N  0.22277746  0.25347319  0.52640211    -0.80300
N330        N  0.52530917  0.57264539  0.78875223    -0.06700
N331        N  0.53500505  0.60453935  0.81597320    -0.58800
N332        N  0.55855131  0.53635292  0.70416371    -0.06400
N333        N  0.59174944  0.54259559  0.67746396    -0.61000
N334        N  0.52562279  0.57395237  0.70433965    -0.06000
N335        N  0.53596326  0.60665484  0.67778155    -0.58800
N336        N  0.55810108  0.53491024  0.78877539    -0.05700
N337        N  0.59048726  0.54012610  0.81623497    -0.61300
C338        C  0.57581167  0.58387071  0.83281492     0.95500
C339        C  0.57740339  0.58667948  0.66124622     0.95200
N340        N  0.51403504  0.38338138  0.70255132    -0.06900
N341        N  0.51847682  0.35206113  0.67436071    -0.59400
N342        N  0.55184278  0.41517368  0.78729380    -0.05000
N343        N  0.58363764  0.40578048  0.81444409    -0.60700
N344        N  0.51471000  0.38179221  0.78723216    -0.06900
N345        N  0.52039356  0.34913170  0.81453112    -0.59700
N346        N  0.55147098  0.41647914  0.70291871    -0.04700
N347        N  0.58239798  0.40812145  0.67507445    -0.60800
Mn348      Mn  0.55659100  0.47560874  0.74578946     1.18400
C349        C  0.56116542  0.36799789  0.65740232     0.97500
C350        C  0.56369388  0.36447598  0.83125755     0.98200
N351        N  0.40579596  0.58029149  0.70429488    -0.06900
N352        N  0.39941100  0.61391232  0.67769725    -0.63300
N353        N  0.36905674  0.54482275  0.78874019    -0.05800
N354        N  0.33752868  0.55294716  0.81624635    -0.63900
N355        N  0.40567142  0.57888335  0.78894018    -0.06500
N356        N  0.39951972  0.61110692  0.81652919    -0.63500
N357        N  0.36849977  0.54700687  0.70427252    -0.05400
N358        N  0.33588120  0.55746782  0.67779181    -0.64200
Mn359      Mn  0.46566474  0.57811233  0.74653742     1.10700
C360        C  0.35552489  0.59934767  0.66146971     0.98800
C361        C  0.35681550  0.59449770  0.83331106     0.98800
N362        N  0.39603046  0.38820452  0.78707900    -0.06500
N363        N  0.38755559  0.35597155  0.81414608    -0.61800
N364        N  0.36230508  0.42684564  0.70286840    -0.05800
N365        N  0.32973468  0.42157831  0.67556301    -0.58600
N366        N  0.39498742  0.38901765  0.70294577    -0.07100
N367        N  0.38504980  0.35691504  0.67588827    -0.61400
N368        N  0.36213192  0.42490192  0.78716077    -0.06100
N369        N  0.32945041  0.41812135  0.81415555    -0.58600
Mn370      Mn  0.45493765  0.38399205  0.74495294     1.20200
Mn371      Mn  0.36394289  0.48603435  0.74572834     1.10100
Cl372      Cl  0.46027534  0.48096900  0.74570862    -0.86600
C373        C  0.34579347  0.37492766  0.83059026     0.95800
C374        C  0.34442916  0.37787709  0.65902315     0.95600
C375        C  0.30563355  0.30479308  0.62594431    -0.26900
C376        C  0.32002402  0.35627347  0.62609034    -0.15000
C377        C  0.31288008  0.38607343  0.59434847     0.35600
C378        C  0.29282176  0.36328580  0.56261714    -0.26400
C379        C  0.27832822  0.31172682  0.56221120    -0.15600
C380        C  0.28424245  0.28222622  0.59438844     0.36700
N381        N  0.26981537  0.22939723  0.59469262    -0.89900
H382        H  0.31124479  0.28216715  0.65052738     0.17800
H383        H  0.28822022  0.38610522  0.53802033     0.17800
N384        N  0.32802743  0.43873499  0.59392161    -0.88900
H385        H  0.27616468  0.21345223  0.62063006     0.35200
H386        H  0.29351557  0.21010162  0.57637499     0.40300
H387        H  0.30340332  0.45873240  0.61115528     0.39900
H388        H  0.32327047  0.45425743  0.56767326     0.34800
C389        C  0.35547022  0.33858969  0.89255518    -0.26900
C390        C  0.32316023  0.35253348  0.86371403    -0.15000
C391        C  0.27064894  0.34356128  0.86657521     0.35600
C392        C  0.25143917  0.32099655  0.89869866    -0.26400
C393        C  0.28361424  0.30870319  0.92811722    -0.15600
C394        C  0.33625779  0.31711524  0.92491244     0.36700
N395        N  0.37002543  0.30339552  0.95435977    -0.89900
H396        H  0.39586336  0.34510287  0.88996636     0.17800
H397        H  0.21108862  0.31427935  0.90122071     0.17800
N398        N  0.23736113  0.35581925  0.83654007    -0.88900
H399        H  0.40747795  0.31233986  0.94761776     0.35200
H400        H  0.36841914  0.26380671  0.95734996     0.40300
H401        H  0.23606462  0.39549334  0.83433069     0.39900
H402        H  0.20038694  0.34404578  0.84234553     0.34800
C403        C  0.09660181  0.14692347  0.96353314    -0.26900
C404        C  0.08896108  0.11840879  0.49515990    -0.15000
C405        C  0.11685309  0.13035537  0.52725627     0.35600
C406        C  0.15398949  0.16847312  0.52583216    -0.26400
C407        C  0.16499476  0.19476026  0.49305664    -0.15600
C408        C  0.13434208  0.18471218  0.96176858     0.36700
N409        N  0.14169822  0.21227223  0.92804217    -0.89900
H410        H  0.07382906  0.13862354  0.93942701     0.17800
H411        H  0.17477055  0.17711391  0.55078905     0.17800
N412        N  0.10841334  0.10506781  0.56178019    -0.88900
H413        H  0.11332156  0.20326187  0.90901656     0.35200
H414        H  0.17551994  0.19930731  0.91643385     0.40300
H415        H  0.07896858  0.07862578  0.56020864     0.39900
H416        H  0.14126744  0.08467606  0.56818587     0.34800
C417        C  0.77480076  0.17878167  0.96345057    -0.26900
C418        C  0.74700667  0.18620365  0.49597062    -0.15000
C419        C  0.75876413  0.15581646  0.52707671     0.35600
C420        C  0.79691859  0.11861669  0.52445687    -0.26400
C421        C  0.82423792  0.11134804  0.49188910    -0.15600
C422        C  0.81309490  0.14197493  0.96097152     0.36700
N423        N  0.84000125  0.13727969  0.92676921    -0.89900
H424        H  0.76711942  0.20210432  0.93951472     0.17800
H425        H  0.80589675  0.09527179  0.54815425     0.21400
N426        N  0.73157533  0.16176038  0.56101945    -0.88900
H427        H  0.81385212  0.12619509  0.90666444     0.35200
H428        H  0.86735788  0.10866331  0.92778493     0.40300
H429        H  0.74348923  0.19604830  0.57286550     0.39900
H430        H  0.74166133  0.13323780  0.57969767     0.34800
C431        C  0.57321506  0.29693926  0.56683583    -0.26900
C432        C  0.62579341  0.29802220  0.56149857    -0.15000
C433        C  0.65689206  0.32317962  0.58742661     0.35600
C434        C  0.63495918  0.34592595  0.61831139    -0.26400
C435        C  0.58242910  0.34413939  0.62403391    -0.15600
C436        C  0.55108668  0.31982106  0.59781071     0.36700
N437        N  0.49695154  0.31958318  0.60215462    -0.89900
H438        H  0.54929486  0.27858007  0.54649526     0.17800
H439        H  0.65924771  0.36502772  0.63804612     0.17800
N440        N  0.71045677  0.32814207  0.58233462    -0.88900
H441        H  0.47959363  0.29974733  0.58059063     0.35200
H442        H  0.48448531  0.35730785  0.60027046     0.40300
H443        H  0.71698002  0.34559289  0.55694502     0.39900
H444        H  0.72657610  0.29182040  0.58201069     0.34800
C445        C  0.65588961  0.32110003  0.90561873    -0.26900
C446        C  0.62421278  0.29124633  0.92764820    -0.15000
C447        C  0.57302422  0.28397153  0.91734759     0.35600
C448        C  0.55463752  0.30799196  0.88564528    -0.26400
C449        C  0.58580186  0.33944193  0.86410649    -0.15600
C450        C  0.63721684  0.34594793  0.87422986     0.36700
N451        N  0.67048067  0.37746490  0.85277464    -0.89900
H452        H  0.69498802  0.32674843  0.91384393     0.17800
H453        H  0.51525665  0.30250508  0.87814507     0.17800
N454        N  0.53868684  0.25265848  0.93814632    -0.88900
H455        H  0.70780243  0.37428043  0.86216194     0.35200
H456        H  0.66003026  0.41534133  0.85742326     0.40300
H457        H  0.55666573  0.23514255  0.96034188     0.39900
H458        H  0.52653320  0.22311521  0.92094125     0.34800
C459        C  0.16069476  0.80249635  0.52807231    -0.26900
C460        C  0.17503128  0.77914074  0.49473351    -0.15000
C461        C  0.14575163  0.79037319  0.96305537     0.35600
C462        C  0.10652448  0.82659645  0.96503344    -0.26400
C463        C  0.09620522  0.85276246  0.49709391    -0.15600
C464        C  0.12203888  0.83905404  0.52967613     0.36700
N465        N  0.11051249  0.86155006  0.56476791    -0.89900
H466        H  0.17976034  0.79253817  0.55346034     0.17800
H467        H  0.08432186  0.83512276  0.94071078     0.17800
N468        N  0.15564226  0.76508618  0.92872746    -0.88900
H469        H  0.09704762  0.83255688  0.58185803     0.35200
H470        H  0.08162053  0.88851599  0.56285885     0.40300
H471        H  0.19003375  0.77917589  0.91877692     0.39900
H472        H  0.13878221  0.78527393  0.40631363     0.34800
C473        C  0.26104411  0.64542293  0.58963202    -0.26900
C474        C  0.29325378  0.67006455  0.56473064    -0.15000
C475        C  0.34551099  0.67437028  0.57299546     0.35600
C476        C  0.36441004  0.65218897  0.60522440    -0.26400
C477        C  0.33269845  0.62534046  0.62932333    -0.15600
C478        C  0.28017809  0.62289909  0.62187722     0.36700
N479        N  0.24648777  0.59757013  0.64693435    -0.89900
H480        H  0.22100345  0.64249128  0.58333181     0.17800
H481        H  0.40460329  0.65505843  0.61099814     0.17800
N482        N  0.38038403  0.70160241  0.54987161    -0.88900
H483        H  0.20927082  0.59856286  0.63708658     0.35200
H484        H  0.24674639  0.61818035  0.67155815     0.40300
H485        H  0.36217516  0.71996516  0.52813676     0.39900
H486        H  0.40533972  0.67501706  0.53850058     0.34800
C487        C  0.31625588  0.69094831  0.90593256    -0.26900
C488        C  0.28971796  0.65970187  0.93052403    -0.15000
C489        C  0.28441619  0.60709857  0.92265069     0.35600
C490        C  0.30622538  0.58720399  0.89060903    -0.26400
C491        C  0.33385610  0.61812997  0.86637057    -0.15600
C492        C  0.33859332  0.67073316  0.87396757     0.36700
N493        N  0.36554631  0.70352587  0.84912958    -0.89900
H494        H  0.32023478  0.73118905  0.91204597     0.17800
H495        H  0.30195853  0.54688603  0.88486196     0.17800
N496        N  0.25624277  0.57292396  0.94580570    -0.88900
H497        H  0.36615861  0.74092751  0.85905735     0.35200
H498        H  0.34533158  0.70433125  0.82438467     0.40300
H499        H  0.23869594  0.59180038  0.96757261     0.39900
H500        H  0.28186679  0.54698542  0.95720336     0.34800
C501        C  0.76597266  0.79612265  0.52694329    -0.26900
C502        C  0.76008348  0.76504726  0.49560845    -0.15000
C503        C  0.79256498  0.77309951  0.96482406     0.35600
C504        C  0.82768771  0.81346050  0.96582716    -0.26400
C505        C  0.83205415  0.84519806  0.49688516    -0.15600
C506        C  0.80154124  0.83590979  0.52775181     0.36700
N507        N  0.80685127  0.86676289  0.56002797    -0.89900
H508        H  0.74257105  0.78991128  0.55096475     0.17800
H509        H  0.85216832  0.82028802  0.94245585     0.17800
N510        N  0.79019797  0.74055992  0.93303694    -0.88900
H511        H  0.81450685  0.84374151  0.08181401     0.35200
H512        H  0.77178162  0.88356395  0.56554456     0.40300
H513        H  0.80071435  0.70570733  0.44028959     0.39900
H514        H  0.81344949  0.75468196  0.41228966     0.34800
C515        C  0.62163957  0.67926794  0.58710157    -0.26900
C516        C  0.65010251  0.64679043  0.56459886    -0.15000
C517        C  0.65693692  0.59550225  0.57487094     0.35600
C518        C  0.63396460  0.57733628  0.60710311    -0.26400
C519        C  0.60349018  0.60909262  0.62893650    -0.15600
C520        C  0.59818123  0.66101453  0.61923241     0.36700
N521        N  0.56927992  0.69506484  0.64195925    -0.89900
H522        H  0.61684092  0.71875269  0.57911499     0.17800
H523        H  0.63879768  0.53769578  0.61461889     0.17800
N524        N  0.68782301  0.56227104  0.55288414    -0.88900
H525        H  0.56843621  0.73160641  0.63054277     0.35200
H526        H  0.58821345  0.69832048  0.66713358     0.40300
H527        H  0.66865296  0.55582010  0.52818667     0.39900
H528        H  0.69150171  0.52665662  0.56547292     0.34800
C529        C  0.63382397  0.67645940  0.90169750    -0.26900
C530        C  0.64856766  0.64307901  0.92985540    -0.15000
C531        C  0.64078063  0.59017197  0.92538176     0.35600
C532        C  0.61743817  0.57192654  0.89321119    -0.26400
C533        C  0.60087970  0.60543447  0.86571608    -0.15600
C534        C  0.60945744  0.65834878  0.87002834     0.36700
N535        N  0.59471301  0.69449700  0.84254391    -0.89900
H536        H  0.63976866  0.71710354  0.90485279     0.17800
H537        H  0.61134895  0.53133372  0.88984739     0.17800
N538        N  0.65691400  0.55513752  0.95339412    -0.88900
H539        H  0.55532994  0.69366962  0.83983374     0.35200
H540        H  0.61112501  0.68393756  0.81752949     0.40300
H541        H  0.69639439  0.55727016  0.95508776     0.39900
H542        H  0.64807491  0.51765339  0.94599535     0.34800
loop_ 
_geom_bond_atom_site_label_1 
_geom_bond_atom_site_label_2 
_geom_bond_distance 
_geom_bond_site_symmetry_2 
_ccdc_geom_bond_type 
C1            N6   1.363   1_556  A
C1          N273   1.362       .  A
C1          C231   1.493       .  S
N2            C3   1.360       .  A
N2          C272   1.363       .  A
C3            N4   1.356       .  A
C3          C259   1.480       .  S
N4          C276   1.355       .  A
C5            N6   1.359       .  A
C5          N275   1.355   1_554  A
C5          C245   1.474       .  S
C7           N12   1.363   1_556  A
C7          N279   1.362       .  A
C7          C189   1.500       .  S
N8            C9   1.359       .  A
N8          C278   1.362       .  A
C9           N10   1.355       .  A
C9          C217   1.475       .  S
N10         C282   1.356       .  A
C11          N12   1.359       .  A
C11         N281   1.356   1_554  A
C11         C203   1.473       .  S
C13          N18   1.361   1_556  A
C13         N285   1.361       .  A
C13         C147   1.493       .  S
N14          C15   1.357       .  A
N14         C284   1.361       .  A
C15          N16   1.354       .  A
C15         C175   1.468       .  S
N16         C288   1.354       .  A
C17          N18   1.359       .  A
C17         N287   1.354   1_554  A
C17         C161   1.473       .  S
N19          C24   1.354   1_656  A
N19          C23   1.354   1_556  A
N19          H51   1.034       .  S
N20          C27   1.353       .  A
N20          C28   1.353   1_565  A
N21          C26   1.354       .  A
N21          C25   1.354       .  A
N21          H52   1.033       .  S
N22          C29   1.353       .  A
N22          C30   1.352   1_565  A
C23          C31   1.388       .  A
C23          C39   1.419   1_554  A
C24          C40   1.418   1_554  A
C24          C32   1.387   1_455  A
C25          C33   1.387   1_556  A
C25          C42   1.419       .  A
C26          C41   1.418   1_655  A
C26          C34   1.387   1_556  A
C27          C39   1.417       .  A
C27          C35   1.387       .  A
C28          C42   1.417       .  A
C28          C36   1.386       .  A
C29          C37   1.386       .  A
C29          C40   1.416       .  A
C30          C38   1.387       .  A
C30          C41   1.417       .  A
C31          C32   1.376       .  A
C31          H43   1.082       .  S
C32          H44   1.082   1_655  S
C33          C34   1.375       .  A
C33          H45   1.082       .  S
C34          H46   1.082   1_655  S
C35          C36   1.373   1_565  A
C35          H47   1.082       .  S
C36          H48   1.082       .  S
C37          C38   1.372   1_565  A
C37          H49   1.082       .  S
C38          H50   1.082       .  S
C39         C234   1.489       .  S
C40         C192   1.491       .  S
C41         C133   1.490       .  S
C42         C150   1.490       .  S
C53          N58   1.365   1_556  A
C53         N325   1.360       .  A
C53         C136   1.495       .  S
N54          C55   1.357       .  A
N54         C324   1.360       .  A
C55          N56   1.352       .  A
C55         C122   1.473       .  S
N56         C328   1.354       .  A
C57          N58   1.361       .  A
C57         N327   1.354   1_554  A
C57         C108   1.481       .  S
N59          N60   1.320       .  A
N59          N65   1.316       .  A
N59         Mn88   2.202       .  S
N60          C67   1.352       .  A
N61          N63   1.316       .  A
N61          N62   1.320       .  A
N61         Mn77   2.200       .  S
N62          C68   1.353       .  A
N63          N64   1.322       .  A
N63         Mn88   2.210       .  S
N64          C68   1.355       .  A
N65          N66   1.321       .  A
N65         Mn77   2.206       .  S
N66          C67   1.354       .  A
C67         C262   1.478       .  S
C68         C248   1.485       .  S
N69          N75   1.315       .  A
N69          N70   1.319       .  A
N69         Mn99   2.195       .  S
N70          C78   1.352       .  A
N71          N72   1.318       .  A
N71          N73   1.314       .  A
N71         Mn77   2.194       .  S
N72          C79   1.352       .  A
N73          N74   1.321       .  A
N73         Mn99   2.202       .  S
N74          C79   1.355       .  A
N75          N76   1.320       .  A
N75         Mn77   2.204       .  S
N76          C78   1.354       .  A
Mn77       Cl101   2.547       .  S
C78         C164   1.477       .  S
C79         C178   1.482       .  S
N80          N81   1.321       .  A
N80          N86   1.316       .  A
N80         Mn88   2.203       .  S
N81          C89   1.354       .  A
N82          N84   1.316       .  A
N82          N83   1.320       .  A
N82        Mn100   2.199       .  S
N83          C90   1.353       .  A
N84          N85   1.322       .  A
N84         Mn88   2.213       .  S
N85          C90   1.355       .  A
N86          N87   1.320       .  A
N86        Mn100   2.202       .  S
N87          C89   1.353       .  A
Mn88       Cl101   2.553       .  S
C89         C206   1.481       .  S
C90         C220   1.483       .  S
N91          N92   1.318       .  A
N91          N97   1.315       .  A
N91         Mn99   2.187       .  S
N92         C102   1.350       .  A
N93          N94   1.319       .  A
N93          N95   1.316       .  A
N93        Mn100   2.200       .  S
N94         C103   1.352       .  A
N95          N96   1.321       .  A
N95         Mn99   2.202       .  S
N96         C103   1.352       .  A
N97          N98   1.320       .  A
N97        Mn100   2.202       .  S
N98         C102   1.353       .  A
Mn99       Cl101   2.549       .  S
Mn100      Cl101   2.547       .  S
C102        C119   1.469       .  S
C103        C105   1.472       .  S
C104        C105   1.403       .  A
C104        C109   1.408       .  A
C104        H111   1.084       .  S
C105        C106   1.407       .  A
C106        C107   1.402       .  A
C106        N113   1.439       .  S
C107        C108   1.406       .  A
C107        H112   1.084       .  S
C108        C109   1.412       .  A
C109        N110   1.437       .  S
N110        H114   1.046       .  S
N110        H115   1.046       .  S
N113        H116   1.045       .  S
N113        H117   1.046       .  S
C118        C119   1.400       .  A
C118        C123   1.401       .  A
C118        H125   1.084       .  S
C119        C120   1.410       .  A
C120        C121   1.406       .  A
C120        N127   1.438       .  S
C121        C122   1.403       .  A
C121        H126   1.084       .  S
C122        C123   1.412       .  A
C123        N124   1.438       .  S
N124        H128   1.046       .  S
N124        H129   1.046       .  S
N127        H130   1.045       .  S
N127        H131   1.046       .  S
C132        C137   1.407       .  A
C132        C404   1.399       .  A
C132        H139   1.084       .  S
C133        C134   1.414   1_556  A
C133        C403   1.400       .  A
C134        C135   1.401       .  A
C134        N141   1.438       .  S
C135        C136   1.408   1_554  A
C135        H140   1.083       .  S
C136        C408   1.421       .  A
C137        C407   1.421       .  A
C137        N138   1.438       .  S
N138        H142   1.046       .  S
N138        H143   1.046       .  S
N141        H144   1.043       .  S
N141        H145   1.046       .  S
C146        C151   1.402       .  A
C146        C418   1.409       .  A
C146        H153   1.084       .  S
C147        C148   1.419   1_556  A
C147        C417   1.408       .  A
C148        C149   1.406       .  A
C148        N155   1.438       .  S
C149        C150   1.401   1_554  A
C149        H154   1.084       .  S
C150        C422   1.414       .  A
C151        C421   1.414       .  A
C151        N152   1.439       .  S
N152        H156   1.046       .  S
N152        H157   1.043       .  S
N155        H158   1.045       .  S
N155        H159   1.046       .  S
C160        C161   1.402       .  A
C160        C165   1.404       .  A
C160        H167   1.084       .  S
C161        C162   1.412       .  A
C162        C163   1.398       .  A
C162        N169   1.433       .  S
C163        C164   1.404       .  A
C163        H168   1.084       .  S
C164        C165   1.413       .  A
C165        N166   1.438       .  S
N166        H170   1.046       .  S
N166        H171   1.046       .  S
N169        H172   1.046       .  S
N169        H173   1.044       .  S
C174        C175   1.399       .  A
C174        C179   1.404       .  A
C174        H181   1.084       .  S
C175        C176   1.415       .  A
C176        C177   1.401       .  A
C176        N183   1.440       .  S
C177        C178   1.405       .  A
C177        H182   1.084       .  S
C178        C179   1.416       .  A
C179        N180   1.438       .  S
N180        H184   1.046       .  S
N180        H185   1.045       .  S
N183        H186   1.043       .  S
N183        H187   1.046       .  S
C188        C189   1.410   1_554  A
C188        C193   1.403       .  A
C188        H195   1.083       .  S
C189        C461   1.421       .  A
C190        C191   1.408       .  A
C190        C460   1.421       .  A
C190        N197   1.438       .  S
C191        C463   1.400       .  A
C191        H196   1.084       .  S
C192        C193   1.414   1_556  A
C192        C462   1.400       .  A
C193        N194   1.439       .  S
N194        H198   1.045       .  S
N194        H199   1.043       .  S
N197        H200   1.046       .  S
N197        H472   1.046       .  S
H201        N468   1.046       .  S
C202        C203   1.402       .  A
C202        C207   1.407       .  A
C202        H209   1.084       .  S
C203        C204   1.416       .  A
C204        C205   1.400       .  A
C204        N211   1.438       .  S
C205        C206   1.403       .  A
C205        H210   1.084       .  S
C206        C207   1.414       .  A
C207        N208   1.438       .  S
N208        H212   1.046       .  S
N208        H213   1.046       .  S
N211        H214   1.043       .  S
N211        H215   1.045       .  S
C216        C217   1.402       .  A
C216        C221   1.408       .  A
C216        H223   1.084       .  S
C217        C218   1.416       .  A
C218        C219   1.401       .  A
C218        N225   1.439       .  S
C219        C220   1.404       .  A
C219        H224   1.084       .  S
C220        C221   1.413       .  A
C221        N222   1.437       .  S
N222        H226   1.046       .  S
N222        H227   1.046       .  S
N225        H228   1.043       .  S
N225        H229   1.046       .  S
C230        C231   1.409   1_554  A
C230        C235   1.404       .  A
C230        H237   1.083       .  S
C231        C503   1.420       .  A
C232        C233   1.408       .  A
C232        C502   1.420       .  A
C232        N239   1.438       .  S
C233        C505   1.400       .  A
C233        H238   1.084       .  S
C234        C235   1.404   1_556  A
C234        C504   1.400       .  A
C235        N236   1.432       .  S
N236        H241   1.046       .  S
N236        H511   1.046       .  S
N239        H513   1.046       .  S
N239        H514   1.046       .  S
H240        N507   1.046       .  S
H242        N510   1.046       .  S
H243        N510   1.046       .  S
C244        C245   1.401       .  A
C244        C249   1.408       .  A
C244        H251   1.084       .  S
C245        C246   1.409       .  A
C246        C247   1.405       .  A
C246        N253   1.438       .  S
C247        C248   1.405       .  A
C247        H252   1.083       .  S
C248        C249   1.415       .  A
C249        N250   1.437       .  S
N250        H254   1.046       .  S
N250        H255   1.046       .  S
N253        H256   1.044       .  S
N253        H257   1.046       .  S
C258        C259   1.403       .  A
C258        C263   1.401       .  A
C258        H265   1.084       .  S
C259        C260   1.413       .  A
C260        C261   1.405       .  A
C260        N267   1.437       .  S
C261        C262   1.402       .  A
C261        H266   1.084       .  S
C262        C263   1.415       .  A
C263        N264   1.432       .  S
N264        H268   1.045       .  S
N264        H269   1.046       .  S
N267        H270   1.046       .  S
N267        H271   1.046       .  S
C272        N277   1.363       .  A
C272        C502   1.494       .  S
N273        C274   1.359       .  A
C274        N275   1.356       .  A
C274        C530   1.479       .  S
C276        N277   1.359       .  A
C276        C516   1.473       .  S
C278        N283   1.363       .  A
C278        C460   1.501       .  S
N279        C280   1.359       .  A
C280        N281   1.355       .  A
C280        C488   1.475       .  S
C282        N283   1.359       .  A
C282        C474   1.474       .  S
C284        N289   1.361       .  A
C284        C418   1.494       .  S
N285        C286   1.357       .  A
C286        N287   1.354       .  A
C286        C446   1.468       .  S
C288        N289   1.359       .  A
C288        C432   1.473       .  S
N290        C295   1.354   1_655  A
N290        C294   1.354       .  A
N290        H322   1.034       .  S
N291        C298   1.353       .  A
N291        C299   1.353   1_565  A
N292        C297   1.354       .  A
N292        C296   1.354       .  A
N292        H323   1.033       .  S
N293        C300   1.353       .  A
N293        C301   1.352   1_565  A
C294        C302   1.388       .  A
C294        C310   1.419       .  A
C295        C311   1.418       .  A
C295        C303   1.387   1_455  A
C296        C304   1.387       .  A
C296        C313   1.419       .  A
C297        C312   1.418   1_655  A
C297        C305   1.387       .  A
C298        C310   1.417       .  A
C298        C306   1.387       .  A
C299        C313   1.417       .  A
C299        C307   1.386       .  A
C300        C308   1.386       .  A
C300        C311   1.416       .  A
C301        C309   1.387       .  A
C301        C312   1.417       .  A
C302        C303   1.376       .  A
C302        H314   1.082       .  S
C303        H315   1.082   1_655  S
C304        C305   1.375       .  A
C304        H316   1.082       .  S
C305        H317   1.082   1_655  S
C306        C307   1.373   1_565  A
C306        H318   1.082       .  S
C307        H319   1.082       .  S
C308        C309   1.372   1_565  A
C308        H320   1.082       .  S
C309        H321   1.082       .  S
C310        C505   1.490       .  S
C311        C463   1.491       .  S
C312        C404   1.489       .  S
C313        C421   1.490       .  S
C324        N329   1.364       .  A
C324        C407   1.496       .  S
N325        C326   1.357       .  A
C326        N327   1.352       .  A
C326        C393   1.473       .  S
C328        N329   1.361       .  A
C328        C379   1.481       .  S
N330        N331   1.320       .  A
N330        N336   1.316       .  A
N330       Mn359   2.202       .  S
N331        C338   1.353       .  A
N332        N334   1.316       .  A
N332        N333   1.320       .  A
N332       Mn348   2.200       .  S
N333        C339   1.353       .  A
N334        N335   1.321       .  A
N334       Mn359   2.210       .  S
N335        C339   1.355       .  A
N336        N337   1.320       .  A
N336       Mn348   2.205       .  S
N337        C338   1.353       .  A
C338        C533   1.478       .  S
C339        C519   1.485       .  S
N340        N346   1.315       .  A
N340        N341   1.319       .  A
N340       Mn370   2.196       .  S
N341        C349   1.352       .  A
N342        N343   1.318       .  A
N342        N344   1.314       .  A
N342       Mn348   2.194       .  S
N343        C350   1.352       .  A
N344        N345   1.321       .  A
N344       Mn370   2.202       .  S
N345        C350   1.355       .  A
N346        N347   1.320       .  A
N346       Mn348   2.202       .  S
N347        C349   1.354       .  A
Mn348      Cl372   2.547       .  S
C349        C435   1.477       .  S
C350        C449   1.483       .  S
N351        N352   1.321       .  A
N351        N357   1.316       .  A
N351       Mn359   2.203       .  S
N352        C360   1.354       .  A
N353        N355   1.316       .  A
N353        N354   1.320       .  A
N353       Mn371   2.200       .  S
N354        C361   1.353       .  A
N355        N356   1.322       .  A
N355       Mn359   2.213       .  S
N356        C361   1.355       .  A
N357        N358   1.320       .  A
N357       Mn371   2.203       .  S
N358        C360   1.353       .  A
Mn359      Cl372   2.553       .  S
C360        C477   1.482       .  S
C361        C491   1.483       .  S
N362        N363   1.318       .  A
N362        N368   1.315       .  A
N362       Mn370   2.188       .  S
N363        C373   1.350       .  A
N364        N365   1.319       .  A
N364        N366   1.316       .  A
N364       Mn371   2.200       .  S
N365        C374   1.352       .  A
N366        N367   1.321       .  A
N366       Mn370   2.202       .  S
N367        C374   1.352       .  A
N368        N369   1.320       .  A
N368       Mn371   2.203       .  S
N369        C373   1.353       .  A
Mn370      Cl372   2.549       .  S
Mn371      Cl372   2.547       .  S
C373        C390   1.469       .  S
C374        C376   1.472       .  S
C375        C376   1.403       .  A
C375        C380   1.408       .  A
C375        H382   1.084       .  S
C376        C377   1.408       .  A
C377        C378   1.402       .  A
C377        N384   1.439       .  S
C378        C379   1.406       .  A
C378        H383   1.084       .  S
C379        C380   1.412       .  A
C380        N381   1.438       .  S
N381        H385   1.046       .  S
N381        H386   1.046       .  S
N384        H387   1.045       .  S
N384        H388   1.046       .  S
C389        C390   1.400       .  A
C389        C394   1.401       .  A
C389        H396   1.084       .  S
C390        C391   1.410       .  A
C391        C392   1.406       .  A
C391        N398   1.438       .  S
C392        C393   1.403       .  A
C392        H397   1.084       .  S
C393        C394   1.412       .  A
C394        N395   1.438       .  S
N395        H399   1.046       .  S
N395        H400   1.046       .  S
N398        H401   1.045       .  S
N398        H402   1.046       .  S
C403        C408   1.407       .  A
C403        H410   1.084       .  S
C404        C405   1.414       .  A
C405        C406   1.401       .  A
C405        N412   1.438       .  S
C406        C407   1.408       .  A
C406        H411   1.083       .  S
C408        N409   1.438       .  S
N409        H413   1.046       .  S
N409        H414   1.045       .  S
N412        H415   1.043       .  S
N412        H416   1.046       .  S
C417        C422   1.402       .  A
C417        H424   1.084       .  S
C418        C419   1.419       .  A
C419        C420   1.407       .  A
C419        N426   1.438       .  S
C420        C421   1.401       .  A
C420        H425   1.084       .  S
C422        N423   1.439       .  S
N423        H427   1.046       .  S
N423        H428   1.043       .  S
N426        H429   1.045       .  S
N426        H430   1.046       .  S
C431        C432   1.402       .  A
C431        C436   1.404       .  A
C431        H438   1.084       .  S
C432        C433   1.412       .  A
C433        C434   1.398       .  A
C433        N440   1.433       .  S
C434        C435   1.404       .  A
C434        H439   1.084       .  S
C435        C436   1.413       .  A
C436        N437   1.438       .  S
N437        H441   1.046       .  S
N437        H442   1.046       .  S
N440        H443   1.046       .  S
N440        H444   1.044       .  S
C445        C446   1.399       .  A
C445        C450   1.404       .  A
C445        H452   1.084       .  S
C446        C447   1.415       .  A
C447        C448   1.401       .  A
C447        N454   1.439       .  S
C448        C449   1.405       .  A
C448        H453   1.084       .  S
C449        C450   1.416       .  A
C450        N451   1.438       .  S
N451        H455   1.046       .  S
N451        H456   1.045       .  S
N454        H457   1.043       .  S
N454        H458   1.046       .  S
C459        C460   1.410       .  A
C459        C464   1.403       .  A
C459        H466   1.083       .  S
C461        C462   1.408       .  A
C461        N468   1.438       .  S
C462        H467   1.084       .  S
C463        C464   1.413       .  A
C464        N465   1.439       .  S
N465        H469   1.045       .  S
N465        H470   1.043       .  S
N468        H471   1.046       .  S
C473        C474   1.402       .  A
C473        C478   1.407       .  A
C473        H480   1.084       .  S
C474        C475   1.416       .  A
C475        C476   1.400       .  A
C475        N482   1.438       .  S
C476        C477   1.403       .  A
C476        H481   1.084       .  S
C477        C478   1.414       .  A
C478        N479   1.438       .  S
N479        H483   1.046       .  S
N479        H484   1.046       .  S
N482        H485   1.043       .  S
N482        H486   1.045       .  S
C487        C488   1.402       .  A
C487        C492   1.408       .  A
C487        H494   1.084       .  S
C488        C489   1.416       .  A
C489        C490   1.401       .  A
C489        N496   1.439       .  S
C490        C491   1.404       .  A
C490        H495   1.084       .  S
C491        C492   1.413       .  A
C492        N493   1.437       .  S
N493        H497   1.046       .  S
N493        H498   1.046       .  S
N496        H499   1.043       .  S
N496        H500   1.046       .  S
C501        C502   1.409       .  A
C501        C506   1.404       .  A
C501        H508   1.083       .  S
C503        C504   1.408       .  A
C503        N510   1.438       .  S
C504        H509   1.084       .  S
C505        C506   1.404       .  A
C506        N507   1.432       .  S
N507        H512   1.046       .  S
C515        C516   1.401       .  A
C515        C520   1.408       .  A
C515        H522   1.084       .  S
C516        C517   1.409       .  A
C517        C518   1.405       .  A
C517        N524   1.438       .  S
C518        C519   1.405       .  A
C518        H523   1.083       .  S
C519        C520   1.415       .  A
C520        N521   1.437       .  S
N521        H525   1.046       .  S
N521        H526   1.046       .  S
N524        H527   1.044       .  S
N524        H528   1.046       .  S
C529        C530   1.403       .  A
C529        C534   1.401       .  A
C529        H536   1.084       .  S
C530        C531   1.413       .  A
C531        C532   1.405       .  A
C531        N538   1.437       .  S
C532        C533   1.402       .  A
C532        H537   1.084       .  S
C533        C534   1.415       .  A
C534        N535   1.432       .  S
N535        H539   1.045       .  S
N535        H540   1.046       .  S
N538        H541   1.046       .  S
N538        H542   1.046       .  S
