geometry optimzed in LAMMPS
_audit_creation_date              2020-11-30 
_audit_creation_method            'lammps2cif' 
_symmetry_space_group_name_H-M    'P1' 
_symmetry_Int_Tables_number       1 
_symmetry_cell_setting            triclinic 
loop_ 
_symmetry_equiv_pos_as_xyz 
  x,y,z 
_cell_length_a                    47.74994953 
_cell_length_b                    23.91130451174951 
_cell_length_c                    24.515353443966063 
_cell_angle_alpha                 77.22815036209894 
_cell_angle_beta                  79.52500442373935 
_cell_angle_gamma                 90.27227239238368 
loop_ 
_atom_site_label 
_atom_site_type_symbol 
_atom_site_fract_x 
_atom_site_fract_y 
_atom_site_fract_z 
_atom_site_charge 
N1          N  0.34686192  0.67879127  0.01840713    -0.02700
C2          C  0.37243442  0.70867307  0.00863253    -0.00100
C3          C  0.38647278  0.70788391  0.44820784    -0.23000
C4          C  0.37109095  0.67181028  0.42734521    -0.23200
C5          C  0.34637945  0.65588004  0.46696575    -0.00200
H6          H  0.40559073  0.73297559  0.42498030     0.13600
H7          H  0.37602183  0.66291672  0.38531227     0.13600
N8          N  0.14956388  0.80683985  0.99315198    -0.02700
C9          C  0.13634464  0.85711158  0.98267112    -0.00100
C10         C  0.14284736  0.89105490  0.01800376    -0.23000
C11         C  0.15930854  0.85966414  0.05301768    -0.23200
C12         C  0.16273606  0.80748768  0.03787724    -0.00200
H13         H  0.13343840  0.93114038  0.02303699     0.13600
H14         H  0.16526171  0.87103748  0.08985025     0.13600
N15         N  0.29142410  0.25423099  0.09057062    -0.02700
C16         C  0.30370041  0.20393372  0.08508389    -0.00100
C17         C  0.29170991  0.15969953  0.13024724    -0.23000
C18         C  0.27166842  0.18297205  0.16512768    -0.23200
C19         C  0.27170900  0.24027374  0.13940588    -0.00200
H20         H  0.29922043  0.11665086  0.14022385     0.13600
H21         H  0.26012605  0.16164458  0.20682995     0.13600
N22         N  0.01616973  0.04994208  0.97480115    -0.35800
N23         N  0.47712677  0.94796177  0.49394858    -0.56400
N24         N  0.42737388  0.01929353  0.51027832    -0.35800
N25         N  0.46447432  0.11550210  0.00369118    -0.56400
C26         C  0.03507304  0.00775540  0.97600991     0.27700
C27         C  0.02582317  0.08931920  0.99992963     0.27700
C28         C  0.41526890  0.96582312  0.53120476     0.27700
C29         C  0.40869091  0.05535828  0.02503689     0.27700
C30         C  0.00153716  0.92864726  0.46797848     0.36400
C31         C  0.45569631  0.91128160  0.49304087     0.36400
C32         C  0.48528752  0.15522153  0.00074751     0.36400
C33         C  0.43988145  0.14348972  0.00182309     0.36400
C34         C  0.05725174  0.02087503  0.00117325    -0.21100
C35         C  0.05143675  0.07224133  0.01628965    -0.21100
C36         C  0.38819848  0.96902322  0.56215380    -0.21100
C37         C  0.38378845  0.02626612  0.55976141    -0.21100
C38         C  0.99525860  0.87848625  0.45228912    -0.22200
C39         C  0.46654991  0.86768761  0.46741006    -0.22200
C40         C  0.47384008  0.20873470  0.99730701    -0.22200
C41         C  0.44532568  0.20161106  0.99635705    -0.22200
C42         C  0.02932841  0.95182914  0.46459536    -0.17500
C43         C  0.01264494  0.14101895  0.00721589    -0.17500
C44         C  0.41226420  0.11606579  0.01294178    -0.17500
C45         C  0.42675623  0.91500682  0.51800730    -0.17500
H46         H  0.07547133  0.99559175  0.00885162     0.15400
H47         H  0.06473488  0.09454268  0.03679036     0.15400
H48         H  0.37299600  0.93378868  0.58344130     0.15400
H49         H  0.36471472  0.04359508  0.57967347     0.15400
H50         H  0.01004931  0.85217880  0.43142787     0.15300
H51         H  0.45478813  0.83160351  0.46101381     0.13700
H52         H  0.48465897  0.24859785  0.99705760     0.13700
H53         H  0.43010739  0.23502390  0.99510681     0.13700
H54         H  0.49779758  0.05207932  0.96137392     0.26900
H55         H  0.44650151  0.03035028  0.48001818     0.26900
N56         N  0.08153546  0.29772861  0.14560773    -0.02700
C57         C  0.05660426  0.26661279  0.15281181    -0.00100
C58         C  0.03904307  0.27000970  0.20346928    -0.23000
C59         C  0.05341124  0.30357646  0.22874677    -0.23200
C60         C  0.07909415  0.32030485  0.19248893    -0.00200
H61         H  0.01772823  0.25112189  0.21991584     0.13600
H62         H  0.04612093  0.31415317  0.26954802     0.13600
O63         O  0.16996323  0.57733373  0.39637022    -0.79400
O64         O  0.16357948  0.49113849  0.27485331    -0.79400
O65         O  0.19174007  0.61272328  0.25367940    -0.79400
O66         O  0.17909996  0.38608380  0.41870449    -0.79300
O67         O  0.19674686  0.56555097  0.18476974    -0.79500
O68         O  0.15690369  0.46406922  0.42904688    -0.79400
O69         O  0.17950454  0.40481710  0.30366917    -0.79400
O70         O  0.20721575  0.63216786  0.35156512    -0.79400
C71         C  0.18233098  0.62627173  0.38212409     1.10300
C72         C  0.16109157  0.43687258  0.28190443     1.10200
C73         C  0.18967510  0.61041626  0.20208553     1.10300
C74         C  0.15759385  0.41024825  0.44121851     1.10200
O75         O  0.21221399  0.44172840  0.46369072    -0.79400
O76         O  0.24535460  0.55915365  0.22569531    -0.79500
O77         O  0.25472425  0.55683225  0.34289916    -0.79400
O78         O  0.24182563  0.43387722  0.28362700    -0.79400
O79         O  0.21610194  0.46084820  0.22081567    -0.79400
O80         O  0.22689023  0.55725767  0.42516184    -0.79400
O81         O  0.24004571  0.41846102  0.39175652    -0.79300
O82         O  0.24707824  0.64177973  0.25098385    -0.79400
Co83       Co  0.19190015  0.51017517  0.42297646     1.51500
Co84       Co  0.20289112  0.52608394  0.25683618     1.51700
Co85       Co  0.22328778  0.57906990  0.30077363     1.51600
Co86       Co  0.21015621  0.41587893  0.34841879     1.51500
O87         O  0.20455451  0.50101829  0.34099172    -1.41300
C88         C  0.23329298  0.41460232  0.44406867     1.10200
C89         C  0.25703581  0.61030428  0.21738734     1.10300
C90         C  0.25159565  0.56257168  0.39366282     1.10300
C91         C  0.23524127  0.42939320  0.23800314     1.10200
C92         C  0.10439776  0.41042272  0.19586048    -0.11500
C93         C  0.10193283  0.35052157  0.20941272     0.05500
C94         C  0.11755778  0.31959634  0.24831985    -0.06800
C95         C  0.13563277  0.34866151  0.27295669    -0.07500
C96         C  0.13881626  0.40919800  0.25914989    -0.02100
C97         C  0.12278588  0.44004839  0.21966847     0.04700
N98         N  0.12509261  0.50115802  0.20185625     0.67200
H99         H  0.09169093  0.43446202  0.16711880     0.16100
H100        H  0.14747772  0.32339410  0.30266146     0.15800
N101        N  0.11469791  0.25828758  0.26369561     0.74900
O102        O  0.14107004  0.52353644  0.15503589    -0.38500
O103        O  0.10494857  0.52952659  0.22117263    -0.38500
O104        O  0.12595878  0.23007147  0.22828295    -0.39200
O105        O  0.09526253  0.23421957  0.30438613    -0.39200
C106        C  0.14186268  0.32108230  0.01768228    -0.11500
C107        C  0.13526658  0.37684447  0.48837981     0.05500
C108        C  0.11071564  0.40250284  0.51221639    -0.06800
C109        C  0.09488868  0.37620010  0.06253794    -0.07500
C110        C  0.10033861  0.32178432  0.09218566    -0.02100
C111        C  0.12337195  0.29277312  0.06797237     0.04700
N112        N  0.12807014  0.23454592  0.09250739     0.67200
H113        H  0.16016141  0.29923986  0.00137343     0.16100
H114        H  0.07639215  0.39757213  0.07928050     0.15800
N115        N  0.10111420  0.45505434  0.48324374     0.74900
O116        O  0.11640584  0.19551827  0.07591667    -0.38500
O117        O  0.15017908  0.22357396  0.11353637    -0.38500
O118        O  0.08224192  0.45285741  0.45371699    -0.39200
O119        O  0.10271961  0.49816747  0.50417420    -0.39200
C120        C  0.05054102  0.25830476  0.05515837    -0.11500
C121        C  0.04793214  0.23354081  0.11349943     0.05500
C122        C  0.03430382  0.17839940  0.13523300    -0.06800
C123        C  0.02253387  0.15095554  0.09958621    -0.07500
C124        C  0.02523118  0.17536107  0.04139134    -0.02100
C125        C  0.04012287  0.22908915  0.01868809     0.04700
N126        N  0.04852703  0.25001751  0.46156501     0.67200
H127        H  0.06023308  0.30081535  0.03737319     0.16100
H128        H  0.01179557  0.10906976  0.11729819     0.15800
N129        N  0.03323318  0.14818413  0.19290668     0.74900
O130        O  0.03464132  0.29161176  0.44086711    -0.38500
O131        O  0.07318616  0.24393258  0.43517436    -0.38500
O132        O  0.00978099  0.14256465  0.22745438    -0.39200
O133        O  0.05237569  0.11349677  0.20376460    -0.39200
C134        C  0.33755234  0.17379168  0.00839759    -0.11500
C135        C  0.33316468  0.19909495  0.05528431     0.05500
C136        C  0.35588645  0.20311083  0.08392720    -0.06800
C137        C  0.38180233  0.17807089  0.06819373    -0.07500
C138        C  0.38602287  0.15021301  0.02259973    -0.02100
C139        C  0.36370580  0.15004978  0.99138527     0.04700
N140        N  0.36518048  0.11606347  0.44856207     0.67200
H141        H  0.31887753  0.16264112  0.49030243     0.16100
H142        H  0.39825301  0.17814000  0.09335157     0.15800
N143        N  0.35171301  0.22771351  0.13275412     0.74900
O144        O  0.35407877  0.06577217  0.46112464    -0.38500
O145        O  0.36835429  0.14397407  0.39757962    -0.38500
O146        O  0.34339328  0.19570800  0.18151736    -0.39200
O147        O  0.34945347  0.28124304  0.12604926    -0.39200
C148        C  0.27635761  0.30222675  0.20402441    -0.11500
C149        C  0.25971292  0.28340086  0.16979626     0.05500
C150        C  0.23467452  0.31121346  0.15964478    -0.06800
C151        C  0.22790530  0.36029891  0.18026041    -0.07500
C152        C  0.24510393  0.38085644  0.21292579    -0.02100
C153        C  0.26916781  0.35002420  0.22643326     0.04700
N154        N  0.28748738  0.36783928  0.26010935     0.67200
H155        H  0.29569195  0.28079035  0.21180375     0.16100
H156        H  0.20842314  0.38105431  0.17246998     0.15800
N157        N  0.21487511  0.28824513  0.13225617     0.74900
O158        O  0.28520576  0.34139318  0.31141795    -0.38500
O159        O  0.31073279  0.39472485  0.23513280    -0.38500
O160        O  0.20971100  0.31763082  0.08603517    -0.39200
O161        O  0.19632917  0.25100403  0.16259891    -0.39200
C162        C  0.26898525  0.39494605  0.01305064    -0.11500
C163        C  0.24900307  0.37353674  0.48076778     0.05500
C164        C  0.24967023  0.31509085  0.47765332    -0.06800
C165        C  0.26647632  0.27755644  0.50867649    -0.07500
C166        C  0.28507898  0.29772512  0.04378709    -0.02100
C167        C  0.28615683  0.35716074  0.04373755     0.04700
N168        N  0.30525081  0.38055563  0.07239988     0.67200
H169        H  0.26979239  0.44014114  0.01355415     0.16100
H170        H  0.26460180  0.23211457  0.50976610     0.15800
N171        N  0.23122515  0.29139766  0.44792053     0.74900
O172        O  0.33085846  0.39154620  0.04747334    -0.38500
O173        O  0.29514692  0.40818681  0.10915761    -0.38500
O174        O  0.24189396  0.27762042  0.40203477    -0.39200
O175        O  0.20791228  0.26695366  0.47590459    -0.39200
C176        C  0.10571753  0.90981486  0.42232108    -0.11500
C177        C  0.11000509  0.86690710  0.95856057     0.05500
C178        C  0.08369530  0.84032475  0.99013751    -0.06800
C179        C  0.05826832  0.86822363  0.98464165    -0.07500
C180        C  0.05822446  0.92209870  0.94758221    -0.02100
C181        C  0.08000173  0.93668528  0.41640543     0.04700
N182        N  0.08057420  0.98753894  0.37271547     0.67200
H183        H  0.12542692  0.92998545  0.39583108     0.16100
H184        H  0.03877259  0.84983940  0.01328150     0.15800
N185        N  0.08252064  0.78867981  0.03309350     0.74900
O186        O  0.08961518  0.03435796  0.38035161    -0.38500
O187        O  0.08091756  0.98241678  0.32246765    -0.38500
O188        O  0.08034142  0.79218017  0.08429550    -0.39200
O189        O  0.07448885  0.74239687  0.02271897    -0.39200
C190        C  0.15229270  0.74072692  0.13314443    -0.11500
C191        C  0.16957457  0.75568709  0.07862751     0.05500
C192        C  0.19293450  0.72220970  0.06569050    -0.06800
C193        C  0.19837203  0.67461112  0.10656769    -0.07500
C194        C  0.18140146  0.66011097  0.16131090    -0.02100
C195        C  0.15812305  0.69384024  0.17462423     0.04700
N196        N  0.13956046  0.68022087  0.22889217     0.67200
H197        H  0.13409715  0.76587145  0.14368525     0.16100
H198        H  0.21674388  0.64988436  0.09598493     0.15800
N199        N  0.21239451  0.73765858  0.01275878     0.74900
O200        O  0.14239104  0.70893091  0.26514791    -0.38500
O201        O  0.11610135  0.65339781  0.23366172    -0.38500
O202        O  0.23330556  0.77168994  0.00867775    -0.39200
O203        O  0.21371919  0.70523842  0.97832103    -0.39200
C204        C  0.13830935  0.71072379  0.48064745    -0.11500
C205        C  0.15217544  0.76453027  0.46176994     0.05500
C206        C  0.17335092  0.77499679  0.41174527    -0.06800
C207        C  0.18151729  0.73035898  0.38419802    -0.07500
C208        C  0.16902328  0.67478104  0.40548965    -0.02100
C209        C  0.14601369  0.66641877  0.45278428     0.04700
N210        N  0.13049347  0.61301682  0.47516788     0.67200
H211        H  0.12225744  0.70214633  0.51916729     0.16100
H212        H  0.19886712  0.73869737  0.34777115     0.15800
N213        N  0.18870826  0.82908089  0.39115872     0.74900
O214        O  0.13662736  0.58101069  0.51930402    -0.38500
O215        O  0.10551999  0.60955858  0.46558593    -0.38500
O216        O  0.20469653  0.84779126  0.87592054    -0.39200
O217        O  0.18181275  0.86389137  0.34955148    -0.39200
C218        C  0.38759922  0.86860103  0.48799544    -0.11500
C219        C  0.40671465  0.86502043  0.52511484     0.05500
C220        C  0.41188415  0.81155060  0.06726510    -0.06800
C221        C  0.39676443  0.76094238  0.06637207    -0.07500
C222        C  0.37575188  0.76580961  0.52051325    -0.02100
C223        C  0.37191635  0.82009715  0.48580215     0.04700
N224        N  0.35440472  0.82616192  0.44364894     0.67200
H225        H  0.38602652  0.90880681  0.45811132     0.16100
H226        H  0.40059275  0.72063051  0.09375886     0.15800
N227        N  0.42895664  0.81147762  0.10947859     0.74900
O228        O  0.33032892  0.84710313  0.45393179    -0.38500
O229        O  0.36628188  0.83047888  0.39240926    -0.38500
O230        O  0.42009685  0.83601260  0.14953282    -0.39200
O231        O  0.45503929  0.80131037  0.09882923    -0.39200
C232        C  0.29688923  0.58841959  0.14543657    -0.11500
C233        C  0.28210737  0.63005010  0.16986844     0.05500
C234        C  0.29090555  0.68860830  0.14603777    -0.06800
C235        C  0.31324884  0.70369282  0.09834175    -0.07500
C236        C  0.32666364  0.66199175  0.07197013    -0.02100
C237        C  0.31885172  0.60341495  0.09763496     0.04700
N238        N  0.33361064  0.55791615  0.07755037     0.67200
H239        H  0.29132631  0.54325625  0.16344772     0.16100
H240        H  0.31895334  0.74863668  0.07972089     0.15800
N241        N  0.27621471  0.73390470  0.16644561     0.74900
O242        O  0.35455516  0.53854586  0.09942188    -0.38500
O243        O  0.32141663  0.52410568  0.55309430    -0.38500
O244        O  0.28808753  0.76111866  0.19531994    -0.39200
O245        O  0.25714858  0.75761902  0.14105666    -0.39200
C246        C  0.32401878  0.57874742  0.43441741    -0.11500
C247        C  0.32127817  0.63029550  0.45245600     0.05500
C248        C  0.29665921  0.66143109  0.44648214    -0.06800
C249        C  0.27376970  0.63693352  0.42992059    -0.07500
C250        C  0.27600408  0.58398591  0.41394870    -0.02100
C251        C  0.30202539  0.55601940  0.41394545     0.04700
N252        N  0.30746956  0.50683887  0.39027756     0.67200
H253        H  0.34387639  0.55694824  0.43437861     0.16100
H254        H  0.25503567  0.66143926  0.42493758     0.15800
N255        N  0.29694907  0.72124207  0.44614047     0.74900
O256        O  0.31795816  0.51499645  0.33790319    -0.38500
O257        O  0.31199349  0.46030449  0.42270516    -0.38500
O258        O  0.31022965  0.75662904  0.40297864    -0.39200
O259        O  0.28842806  0.73651997  0.99618807    -0.39200
N260        N  0.34632239  0.67898295  0.51300932    -0.02700
C261        C  0.37061131  0.71350007  0.49977613    -0.00100
C262        C  0.38913132  0.70052361  0.95881519    -0.23000
C263        C  0.37319946  0.66757390  0.93562785    -0.23200
C264        C  0.34725524  0.65585885  0.97210726    -0.00200
H265        H  0.40941538  0.72243260  0.93781682     0.13600
H266        H  0.37898359  0.65752986  0.89420909     0.13600
N267        N  0.14781476  0.80498381  0.49781589    -0.02700
C268        C  0.13343596  0.85400062  0.48937952    -0.00100
C269        C  0.13879389  0.88657856  0.52674891    -0.23000
C270        C  0.15562720  0.85531288  0.56099677    -0.23200
C271        C  0.16040717  0.80456815  0.54337915    -0.00200
H272        H  0.12825010  0.92504642  0.53378298     0.13600
H273        H  0.16076457  0.86532482  0.59909502     0.13600
N274        N  0.29028293  0.25322040  0.58943228    -0.02700
C275        C  0.30409366  0.20435543  0.58434327    -0.00100
C276        C  0.29409667  0.16034076  0.63124025    -0.23000
C277        C  0.27355850  0.18219148  0.66637863    -0.23200
C278        C  0.27132548  0.23847169  0.63929007    -0.00200
H279        H  0.30319740  0.11883667  0.64183494     0.13600
H280        H  0.26337723  0.16113348  0.70922382     0.13600
N281        N  0.01496278  0.04647575  0.48096049    -0.35800
N282        N  0.47934889  0.95037748  0.99104435    -0.56400
N283        N  0.42850167  0.01883406  0.00883221    -0.35800
N284        N  0.46428187  0.11357601  0.50717498    -0.56400
C285        C  0.03327282  0.00333766  0.48232439     0.27700
C286        C  0.02579443  0.08663418  0.50356118     0.27700
C287        C  0.41689635  0.96487366  0.02969870     0.27700
C288        C  0.40824789  0.05653282  0.52727159     0.27700
C289        C  0.00511866  0.93368734  0.95591495     0.36400
C290        C  0.45833164  0.91154308  0.99265304     0.36400
C291        C  0.48568628  0.15226708  0.50354914     0.36400
C292        C  0.44028434  0.14313273  0.50267113     0.36400
C293        C  0.05634680  0.01667522  0.50491580    -0.21100
C294        C  0.05160892  0.06908993  0.51845548    -0.21100
C295        C  0.38940804  0.96717295  0.05940057    -0.21100
C296        C  0.38419049  0.02420789  0.05620890    -0.21100
C297        C  0.99992312  0.88435175  0.93777850    -0.22200
C298        C  0.46969106  0.86739120  0.96846534    -0.22200
C299        C  0.47520035  0.20678405  0.49707013    -0.22200
C300        C  0.44673491  0.20124944  0.49469557    -0.22200
C301        C  0.03242869  0.95725809  0.95577510    -0.17500
C302        C  0.01339909  0.13918830  0.51021733    -0.17500
C303        C  0.41231422  0.11714550  0.51359722    -0.17500
C304        C  0.42927026  0.91407618  0.01796287    -0.17500
H305        H  0.07442846  0.99082145  0.51211532     0.15400
H306        H  0.06569926  0.09173607  0.53704084     0.15400
H307        H  0.37445971  0.93143344  0.08050612     0.15400
H308        H  0.36466686  0.04077310  0.07528424     0.15400
H309        H  0.01541088  0.85948062  0.91659814     0.15300
H310        H  0.45838689  0.82979942  0.96399795     0.13700
H311        H  0.48655862  0.24636456  0.49569047     0.13700
H312        H  0.43221536  0.23586568  0.49076409     0.13700
H313        H  0.49686732  0.04899518  0.46492236     0.26900
H314        H  0.44749488  0.03028340  0.98009567     0.26900
N315        N  0.08221319  0.29644848  0.64765509    -0.02700
C316        C  0.05725570  0.26502503  0.65588174    -0.00100
C317        C  0.04024312  0.26822202  0.70721631    -0.23000
C318        C  0.05499523  0.30177208  0.73184978    -0.23200
C319        C  0.08032055  0.31887546  0.69454629    -0.00200
H320        H  0.01898674  0.24944956  0.72457075     0.13600
H321        H  0.04816670  0.31219047  0.77286597     0.13600
O322        O  0.17239355  0.57678628  0.89589725    -0.79400
O323        O  0.16464218  0.48930729  0.77770427    -0.79400
O324        O  0.19271165  0.61073868  0.75464559    -0.79400
O325        O  0.18136595  0.38572616  0.92046862    -0.79300
O326        O  0.19680672  0.56294846  0.68618223    -0.79500
O327        O  0.15920618  0.46390607  0.92994409    -0.79400
O328        O  0.18086328  0.40323142  0.80583956    -0.79400
O329        O  0.20939920  0.63220171  0.85052895    -0.79400
C330        C  0.18488489  0.62550061  0.88249184     1.10300
C331        C  0.16225834  0.43507075  0.78450645     1.10200
C332        C  0.18968622  0.60763365  0.70379810     1.10300
C333        C  0.15980442  0.41007750  0.94247061     1.10200
O334        O  0.21477236  0.44260404  0.96354742    -0.79400
O335        O  0.24628377  0.55800364  0.72410903    -0.79500
O336        O  0.25702752  0.55804575  0.84144030    -0.79400
O337        O  0.24313536  0.43226034  0.78335739    -0.79400
O338        O  0.21670285  0.45910237  0.72170549    -0.79400
O339        O  0.22928809  0.55777758  0.92410858    -0.79400
O340        O  0.24228215  0.41885255  0.89142098    -0.79300
O341        O  0.24835112  0.64099253  0.74855991    -0.79400
Co342      Co  0.19427310  0.51025191  0.92286787     1.51500
Co343      Co  0.20396568  0.52453660  0.75759561     1.51700
Co344      Co  0.22507220  0.57852654  0.80004105     1.51600
Co345      Co  0.21199805  0.41506852  0.84926975     1.51500
O346        O  0.20669542  0.50037100  0.84122904    -1.41300
C347        C  0.23588785  0.41582432  0.94367644     1.10200
C348        C  0.25793006  0.60934767  0.71484808     1.10300
C349        C  0.25391871  0.56395854  0.89225102     1.10300
C350        C  0.23597406  0.42766489  0.73820270     1.10200
C351        C  0.10427463  0.40926912  0.70086287    -0.11500
C352        C  0.10341344  0.34943788  0.71039556     0.05500
C353        C  0.12054718  0.31817637  0.74594224    -0.06800
C354        C  0.13862525  0.34684684  0.77092266    -0.07500
C355        C  0.14010890  0.40736599  0.76133192    -0.02100
C356        C  0.12241970  0.43856315  0.72551252     0.04700
N357        N  0.12214137  0.49973290  0.71357814     0.67200
H358        H  0.09022469  0.43341418  0.67522647     0.16100
H359        H  0.15163878  0.32124548  0.79793683     0.15800
N360        N  0.11866495  0.25681401  0.75886835     0.74900
O361        O  0.13595738  0.52782556  0.66655490    -0.38500
O362        O  0.10147189  0.52263819  0.73891693    -0.38500
O363        O  0.12953783  0.23082053  0.72123885    -0.39200
O364        O  0.10021957  0.23046079  0.80032707    -0.39200
C365        C  0.14025416  0.32066480  0.51569974    -0.11500
C366        C  0.13706981  0.37695600  0.98901547     0.05500
C367        C  0.11199429  0.40264354  0.01056811    -0.06800
C368        C  0.09458360  0.37586919  0.56518142    -0.07500
C369        C  0.10036854  0.32116570  0.59361344    -0.02100
C370        C  0.12265772  0.29210776  0.56698647     0.04700
N371        N  0.12749151  0.23358417  0.58994984     0.67200
H372        H  0.15802880  0.29871833  0.49750552     0.16100
H373        H  0.07650771  0.39724140  0.58362719     0.15800
N374        N  0.10272862  0.45477192  0.97987660     0.74900
O375        O  0.11575518  0.19544246  0.57227391    -0.38500
O376        O  0.14999283  0.22212534  0.60946214    -0.38500
O377        O  0.08446927  0.45179417  0.94922502    -0.39200
O378        O  0.10405017  0.49888478  0.99940477    -0.39200
C379        C  0.05178065  0.25560626  0.55810802    -0.11500
C380        C  0.04817318  0.23186546  0.61688030     0.05500
C381        C  0.03377187  0.17736563  0.63878030    -0.06800
C382        C  0.02271266  0.14945264  0.60264287    -0.07500
C383        C  0.02644992  0.17294985  0.54415187    -0.02100
C384        C  0.04187948  0.22602782  0.52142091     0.04700
N385        N  0.04574993  0.25401265  0.95898626     0.67200
H386        H  0.06178850  0.29773449  0.53994718     0.16100
H387        H  0.01133410  0.10820515  0.62043483     0.15800
N388        N  0.03068300  0.14851886  0.69738142     0.74900
O389        O  0.03187936  0.29646067  0.94017618    -0.38500
O390        O  0.06977570  0.24718636  0.93046729    -0.38500
O391        O  0.00636377  0.14456392  0.72884940    -0.39200
O392        O  0.04886375  0.11282031  0.71177528    -0.39200
C393        C  0.33697576  0.17137184  0.50868776    -0.11500
C394        C  0.33321003  0.20179260  0.55178760     0.05500
C395        C  0.35673013  0.21145671  0.57643210    -0.06800
C396        C  0.38267645  0.18596252  0.56180205    -0.07500
C397        C  0.38622253  0.15242955  0.52066178    -0.02100
C398        C  0.36314966  0.14749261  0.49227518     0.04700
N399        N  0.36657127  0.12386158  0.94377361     0.67200
H400        H  0.32000452  0.16928881  0.98693933     0.16100
H401        H  0.39959728  0.18990872  0.58495239     0.15800
N402        N  0.35341092  0.24219911  0.62083765     0.74900
O403        O  0.35516391  0.07443740  0.95082532    -0.38500
O404        O  0.37133162  0.15592456  0.89440823    -0.38500
O405        O  0.34614862  0.21512018  0.67196814    -0.39200
O406        O  0.35106917  0.29581449  0.60851073    -0.39200
C407        C  0.27662570  0.30084665  0.70281648    -0.11500
C408        C  0.25939946  0.28137803  0.66997000     0.05500
C409        C  0.23409096  0.30877884  0.66100001    -0.06800
C410        C  0.22750205  0.35779557  0.68191229    -0.07500
C411        C  0.24537272  0.37903909  0.71297732    -0.02100
C412        C  0.26984595  0.34896148  0.72480324     0.04700
N413        N  0.28923496  0.36849534  0.75540771     0.67200
H414        H  0.29627595  0.28003190  0.70927575     0.16100
H415        H  0.20779475  0.37821798  0.67528123     0.15800
N416        N  0.21411215  0.28601313  0.63379055     0.74900
O417        O  0.28892338  0.34236031  0.80622855    -0.38500
O418        O  0.31157101  0.39704766  0.72752760    -0.38500
O419        O  0.20824997  0.31622072  0.58856111    -0.39200
O420        O  0.19614929  0.24741158  0.66375687    -0.39200
C421        C  0.26664013  0.39330225  0.51287956    -0.11500
C422        C  0.25169742  0.37524046  0.98025390     0.05500
C423        C  0.25233282  0.31692416  0.97705436    -0.06800
C424        C  0.26890633  0.27933679  0.00833956    -0.07500
C425        C  0.28316773  0.29629089  0.54306963    -0.02100
C426        C  0.28422778  0.35576673  0.54270191     0.04700
N427        N  0.30398783  0.37965614  0.56956247     0.67200
H428        H  0.26755079  0.43853880  0.51317584     0.16100
H429        H  0.26698025  0.23395871  0.00918891     0.15800
N430        N  0.23383562  0.29334124  0.94734743     0.74900
O431        O  0.32913397  0.39188822  0.54233254    -0.38500
O432        O  0.29448417  0.40687547  0.60703174    -0.38500
O433        O  0.24440586  0.27997800  0.90120000    -0.39200
O434        O  0.21051313  0.26891501  0.97533298    -0.39200
C435        C  0.10958311  0.91720432  0.91674298    -0.11500
C436        C  0.10671269  0.86180118  0.46644076     0.05500
C437        C  0.08071560  0.83635722  0.50070445    -0.06800
C438        C  0.05511864  0.86344712  0.49513641    -0.07500
C439        C  0.05462460  0.91559709  0.45575940    -0.02100
C440        C  0.08408840  0.94483048  0.91071948     0.04700
N441        N  0.08535684  0.99775254  0.86944025     0.67200
H442        H  0.12954674  0.93826803  0.89233455     0.16100
H443        H  0.03597997  0.84641907  0.52570516     0.15800
N444        N  0.08017957  0.78756110  0.54667186     0.74900
O445        O  0.09427806  0.04288174  0.88070589    -0.38500
O446        O  0.08676959  0.99595341  0.81796434    -0.38500
O447        O  0.07920391  0.79552104  0.59617106    -0.39200
O448        O  0.07133388  0.73965751  0.54121634    -0.39200
C449        C  0.15057623  0.73642336  0.63788487    -0.11500
C450        C  0.16732222  0.75193299  0.58279531     0.05500
C451        C  0.19059538  0.71872711  0.56855892    -0.06800
C452        C  0.19645671  0.67096779  0.60855923    -0.07500
C453        C  0.18032762  0.65646609  0.66394509    -0.02100
C454        C  0.15715158  0.68983279  0.67877826     0.04700
N455        N  0.13988979  0.67702244  0.73444837     0.67200
H456        H  0.13251303  0.76142768  0.64963878     0.16100
H457        H  0.21483883  0.64663366  0.59697886     0.15800
N458        N  0.21007993  0.73523062  0.51583436     0.74900
O459        O  0.14480173  0.70483697  0.77011622    -0.38500
O460        O  0.11568212  0.65218099  0.74173933    -0.38500
O461        O  0.23080483  0.76937188  0.51280925    -0.39200
O462        O  0.21225435  0.70224227  0.48182155    -0.39200
C463        C  0.14406975  0.70758027  0.98659935    -0.11500
C464        C  0.15264782  0.76400653  0.95962100     0.05500
C465        C  0.16935226  0.77533306  0.90406052    -0.06800
C466        C  0.17843470  0.72979433  0.87847045    -0.07500
C467        C  0.17177978  0.67262605  0.90770235    -0.02100
C468        C  0.15398472  0.66197878  0.96246726     0.04700
N469        N  0.14813396  0.60581950  0.99788782     0.67200
H470        H  0.13173070  0.69856871  0.02953596     0.16100
H471        H  0.19193943  0.73923486  0.83662225     0.15800
N472        N  0.17954617  0.83218242  0.87493979     0.74900
O473        O  0.16684620  0.58408152  0.02542342    -0.38500
O474        O  0.12237964  0.59073495  0.01849528    -0.38500
O475        O  0.21348796  0.83378730  0.40128987    -0.39200
O476        O  0.16764845  0.85810692  0.83524208    -0.39200
C477        C  0.38975097  0.86447437  0.99178459    -0.11500
C478        C  0.40984503  0.86253171  0.02675950     0.05500
C479        C  0.40784119  0.81334070  0.56521336    -0.06800
C480        C  0.39294981  0.76346251  0.56187390    -0.07500
C481        C  0.37822107  0.76184407  0.02755721    -0.02100
C482        C  0.37367817  0.81537972  0.99251283     0.04700
N483        N  0.35490182  0.82001954  0.95282116     0.67200
H484        H  0.38741625  0.90405181  0.96164632     0.16100
H485        H  0.39614862  0.72258101  0.58905727     0.15800
N486        N  0.42416761  0.81167850  0.60888810     0.74900
O487        O  0.33080396  0.84011056  0.96539693    -0.38500
O488        O  0.36554075  0.82409097  0.90097545    -0.38500
O489        O  0.41508213  0.83637369  0.64871348    -0.39200
O490        O  0.45015212  0.80043907  0.59958771    -0.39200
C491        C  0.29746605  0.58787220  0.64153737    -0.11500
C492        C  0.28256986  0.62927120  0.66621022     0.05500
C493        C  0.29096410  0.68795087  0.64189665    -0.06800
C494        C  0.31291902  0.70342048  0.59354656    -0.07500
C495        C  0.32659171  0.66195585  0.56723109    -0.02100
C496        C  0.31926103  0.60324438  0.59334361     0.04700
N497        N  0.33450525  0.55808764  0.57353785     0.67200
H498        H  0.29224752  0.54264902  0.65989346     0.16100
H499        H  0.31814848  0.74845805  0.57456297     0.15800
N500        N  0.27630424  0.73301713  0.66275253     0.74900
O501        O  0.35601397  0.54071996  0.59446534    -0.38500
O502        O  0.32027878  0.52547424  0.05584595    -0.38500
O503        O  0.28855163  0.76088040  0.69054479    -0.39200
O504        O  0.25673452  0.75600140  0.63845950    -0.39200
C505        C  0.32558613  0.58016605  0.93629760    -0.11500
C506        C  0.32241060  0.63106325  0.95559041     0.05500
C507        C  0.29780169  0.66210178  0.94895863    -0.06800
C508        C  0.27544714  0.63820752  0.93013105    -0.07500
C509        C  0.27816425  0.58592416  0.91284426    -0.02100
C510        C  0.30415970  0.55811556  0.91377601     0.04700
N511        N  0.31014027  0.50962142  0.88928800     0.67200
H512        H  0.34537901  0.55823599  0.93702606     0.16100
H513        H  0.25669520  0.66256172  0.92489612     0.15800
N514        N  0.29764762  0.72145151  0.95037391     0.74900
O515        O  0.32157394  0.51873952  0.83731774    -0.38500
O516        O  0.31404440  0.46248487  0.92148635    -0.38500
O517        O  0.31027582  0.75811748  0.90755114    -0.39200
O518        O  0.28740283  0.73794194  0.49092693    -0.39200
N519        N  0.84920029  0.67587450  0.01595457    -0.02700
C520        C  0.87510882  0.70443360  0.00635507    -0.00100
C521        C  0.88847869  0.70822133  0.45315735    -0.23000
C522        C  0.87317175  0.67379136  0.43043519    -0.23200
C523        C  0.84818294  0.65745945  0.46913079    -0.00200
H524        H  0.90777437  0.73336330  0.43112550     0.13600
H525        H  0.87840591  0.66616227  0.38792176     0.13600
N526        N  0.65068736  0.80933063  0.99570255    -0.02700
C527        C  0.63726088  0.85945446  0.98551823    -0.00100
C528        C  0.64409955  0.89357104  0.02042918    -0.23000
C529        C  0.66080520  0.86231580  0.05504456    -0.23200
C530        C  0.66412895  0.81005333  0.04002488    -0.00200
H531        H  0.63454447  0.93340006  0.02594598     0.13600
H532        H  0.66688945  0.87374775  0.09173771     0.13600
N533        N  0.79312092  0.25360409  0.08950921    -0.02700
C534        C  0.80486373  0.20252799  0.08569524    -0.00100
C535        C  0.79380825  0.16046360  0.13368387    -0.23000
C536        C  0.77487852  0.18602893  0.16850907    -0.23200
C537        C  0.77464294  0.24241092  0.14002028    -0.00200
H538        H  0.80137034  0.11761877  0.14517629     0.13600
H539        H  0.76434190  0.16696860  0.21166176     0.13600
N540        N  0.51585394  0.04984863  0.97962270    -0.35800
N541        N  0.97745432  0.94821817  0.49467645    -0.56400
N542        N  0.92749109  0.01810517  0.51363834    -0.35800
N543        N  0.96437856  0.11404629  0.99841678    -0.56400
C544        C  0.53480677  0.00771508  0.98046503     0.27700
C545        C  0.52626945  0.09051680  0.00233475     0.27700
C546        C  0.91582130  0.96459817  0.53640582     0.27700
C547        C  0.90913107  0.05338459  0.01832692     0.27700
C548        C  0.50156607  0.92799881  0.46905006     0.36400
C549        C  0.95594524  0.91056901  0.49639119     0.36400
C550        C  0.98495150  0.15390755  0.99646028     0.36400
C551        C  0.93982512  0.14185824  0.99509381     0.36400
C552        C  0.55780611  0.02235687  0.00265794    -0.21100
C553        C  0.55238983  0.07436544  0.01664133    -0.21100
C554        C  0.88900559  0.96781774  0.56838640    -0.21100
C555        C  0.88429417  0.02516630  0.56452453    -0.21100
C556        C  0.49561357  0.87850266  0.45190049    -0.22200
C557        C  0.96638429  0.86686909  0.47049834    -0.22200
C558        C  0.97339915  0.20738085  0.99200013    -0.22200
C559        C  0.94511741  0.20009137  0.98925567    -0.22200
C560        C  0.52917893  0.95066372  0.46802357    -0.17500
C561        C  0.51327049  0.14239872  0.00968694    -0.17500
C562        C  0.91228195  0.11405240  0.00645175    -0.17500
C563        C  0.92733666  0.91365213  0.52368311    -0.17500
H564        H  0.57627234  0.99753223  0.00943192     0.15400
H565        H  0.56622782  0.09767476  0.03518692     0.15400
H566        H  0.87412446  0.93251869  0.59117360     0.15400
H567        H  0.86530858  0.04256905  0.58467015     0.15400
H568        H  0.51068552  0.85212682  0.43180720     0.15300
H569        H  0.95449569  0.83016717  0.46569205     0.13700
H570        H  0.98389713  0.24731568  0.99242350     0.13700
H571        H  0.92986680  0.23344666  0.98698034     0.13700
H572        H  0.99873189  0.05324288  0.95454910     0.26900
H573        H  0.94638044  0.02908705  0.48200373     0.26900
N574        N  0.58326817  0.30107465  0.14473838    -0.02700
C575        C  0.55766592  0.27204362  0.15218739    -0.00100
C576        C  0.54049967  0.27725921  0.20268162    -0.23000
C577        C  0.55584509  0.30934882  0.22770924    -0.23200
C578        C  0.58171430  0.32363809  0.19146607    -0.00200
H579        H  0.51884567  0.26049176  0.21935502     0.13600
H580        H  0.54902738  0.32066905  0.26830315     0.13600
O581        O  0.67298541  0.57712332  0.39740157    -0.79400
O582        O  0.66644583  0.49149401  0.27592970    -0.79400
O583        O  0.69411332  0.61472684  0.25520665    -0.79400
O584        O  0.68303006  0.38561399  0.41714252    -0.79300
O585        O  0.69837595  0.56804332  0.18606754    -0.79500
O586        O  0.66053855  0.46324918  0.42743115    -0.79400
O587        O  0.68341056  0.40560727  0.30176826    -0.79400
O588        O  0.71004417  0.63293254  0.35298139    -0.79400
C589        C  0.68528438  0.62614428  0.38414127     1.10300
C590        C  0.66461810  0.43739460  0.28112859     1.10200
C591        C  0.69143302  0.61269462  0.20388505     1.10300
C592        C  0.66147560  0.40946541  0.43993389     1.10200
O593        O  0.71556846  0.44146259  0.46260819    -0.79400
O594        O  0.74750921  0.56195386  0.22503900    -0.79500
O595        O  0.75773839  0.55887506  0.34269853    -0.79400
O596        O  0.74552716  0.43664479  0.28164123    -0.79400
O597        O  0.71925451  0.46419776  0.21965666    -0.79400
O598        O  0.72981397  0.55699480  0.42561701    -0.79400
O599        O  0.74377356  0.41901441  0.39059299    -0.79300
O600        O  0.74979518  0.64425739  0.25065079    -0.79400
Co601      Co  0.69510236  0.50985170  0.42272564     1.51500
Co602      Co  0.70538743  0.52796388  0.25718121     1.51700
Co603      Co  0.72616803  0.58095872  0.30099147     1.51600
Co604      Co  0.71396630  0.41689080  0.34677769     1.51500
O605        O  0.70798422  0.50202900  0.34057187    -1.41300
C606        C  0.73678343  0.41473888  0.44299130     1.10200
C607        C  0.75935368  0.61290660  0.21655999     1.10300
C608        C  0.75447507  0.56345502  0.39389578     1.10300
C609        C  0.73898805  0.43364652  0.23550372     1.10200
C610        C  0.60959282  0.41198046  0.19134424    -0.11500
C611        C  0.60524332  0.35239370  0.20791297     0.05500
C612        C  0.61963368  0.32122865  0.24906409    -0.06800
C613        C  0.63791412  0.34986398  0.27374276    -0.07500
C614        C  0.64260467  0.41006960  0.25752273    -0.02100
C615        C  0.62833828  0.44098778  0.21492152     0.04700
N616        N  0.63355051  0.50122841  0.19251261     0.67200
H617        H  0.59819007  0.43627149  0.16020310     0.16100
H618        H  0.64869712  0.32461580  0.30542744     0.15800
N619        N  0.61551182  0.26013960  0.26623163     0.74900
O620        O  0.65195404  0.51782786  0.14766305    -0.38500
O621        O  0.61431092  0.53466341  0.20514831    -0.38500
O622        O  0.62680814  0.22992249  0.23277721    -0.39200
O623        O  0.59524595  0.23835507  0.30616614    -0.39200
C624        C  0.64421167  0.32387306  0.01828421    -0.11500
C625        C  0.63921941  0.37606363  0.48736611     0.05500
C626        C  0.61480858  0.40209934  0.51117227    -0.06800
C627        C  0.59567137  0.37719797  0.05922935    -0.07500
C628        C  0.60194523  0.32438941  0.09103476    -0.02100
C629        C  0.62590628  0.29638098  0.06902276     0.04700
N630        N  0.63205504  0.24019408  0.09683486     0.67200
H631        H  0.66330699  0.30315901  0.00389419     0.16100
H632        H  0.57667919  0.39797688  0.07465676     0.15800
N633        N  0.60694951  0.45730493  0.48505780     0.74900
O634        O  0.62228526  0.19793724  0.08198088    -0.38500
O635        O  0.65400895  0.23415248  0.11898481    -0.38500
O636        O  0.58837759  0.46072233  0.45399285    -0.39200
O637        O  0.60945787  0.49690485  0.51026158    -0.39200
C638        C  0.55240410  0.26000975  0.05491826    -0.11500
C639        C  0.54844158  0.23786695  0.11401532     0.05500
C640        C  0.53344368  0.18407180  0.13705016    -0.06800
C641        C  0.52240294  0.15509927  0.10162203    -0.07500
C642        C  0.52633866  0.17716527  0.04288017    -0.02100
C643        C  0.54206588  0.22979640  0.01912265     0.04700
N644        N  0.54905827  0.24732623  0.46120343     0.67200
H645        H  0.56282666  0.30157757  0.03584400     0.16100
H646        H  0.51072845  0.11429626  0.12026102     0.15800
N647        N  0.52956381  0.15709321  0.19626013     0.74900
O648        O  0.53529107  0.28870697  0.43964641    -0.38500
O649        O  0.57342792  0.23974464  0.43452735    -0.38500
O650        O  0.50512208  0.15576729  0.22673953    -0.39200
O651        O  0.54691250  0.12030991  0.21258618    -0.39200
C652        C  0.83673401  0.16940362  0.00843556    -0.11500
C653        C  0.83369597  0.19637353  0.05406550     0.05500
C654        C  0.85735562  0.20181925  0.07976264    -0.06800
C655        C  0.88293343  0.17657998  0.06248499    -0.07500
C656        C  0.88596119  0.14743240  0.01790297    -0.02100
C657        C  0.86259447  0.14566350  0.98960203     0.04700
N658        N  0.86513652  0.11581681  0.45091047     0.67200
H659        H  0.81866091  0.16102341  0.49466513     0.16100
H660        H  0.90014515  0.17777878  0.08560925     0.15800
N661        N  0.85467221  0.22870645  0.12695996     0.74900
O662        O  0.85449773  0.06521913  0.46244145    -0.38500
O663        O  0.86819619  0.14473479  0.40031009    -0.38500
O664        O  0.84753532  0.19854301  0.17693302    -0.39200
O665        O  0.85289548  0.28245826  0.11837555    -0.39200
C666        C  0.78163691  0.31000486  0.19796036    -0.11500
C667        C  0.76370499  0.28779093  0.16813365     0.05500
C668        C  0.73795846  0.31361971  0.16025197    -0.06800
C669        C  0.73128361  0.36340985  0.17955063    -0.07500
C670        C  0.74942825  0.38673339  0.20862836    -0.02100
C671        C  0.77470816  0.35883233  0.21878428     0.04700
N672        N  0.79436345  0.38062845  0.24744140     0.67200
H673        H  0.80163629  0.29029660  0.20358592     0.16100
H674        H  0.71103625  0.38212499  0.17428662     0.15800
N675        N  0.71730949  0.28752422  0.13723594     0.74900
O676        O  0.79458880  0.35653575  0.29863594    -0.38500
O677        O  0.81640292  0.40912844  0.21796724    -0.38500
O678        O  0.71154264  0.31279256  0.08999623    -0.39200
O679        O  0.69903175  0.25210525  0.17126994    -0.39200
C680        C  0.77141445  0.39415839  0.01073265    -0.11500
C681        C  0.75229279  0.37380113  0.48014215     0.05500
C682        C  0.75290052  0.31516921  0.47780450    -0.06800
C683        C  0.76889834  0.27760304  0.51074989    -0.07500
C684        C  0.78657051  0.29632373  0.04227294    -0.02100
C685        C  0.78893404  0.35597454  0.04014160     0.04700
N686        N  0.81020342  0.37911488  0.06411026     0.67200
H687        H  0.77306253  0.43950875  0.01020215     0.16100
H688        H  0.76692859  0.23206817  0.51235975     0.15800
N689        N  0.73572833  0.29165243  0.44562488     0.74900
O690        O  0.83525685  0.38753485  0.03555273    -0.38500
O691        O  0.80253097  0.40831946  0.10072783    -0.38500
O692        O  0.74773014  0.27921258  0.39984840    -0.39200
O693        O  0.71227199  0.26611185  0.47130474    -0.39200
C694        C  0.60592352  0.91258399  0.42157366    -0.11500
C695        C  0.60993822  0.86771121  0.96460529     0.05500
C696        C  0.58420610  0.84264365  0.00025388    -0.06800
C697        C  0.55838464  0.86908653  0.99500313    -0.07500
C698        C  0.55734778  0.92042027  0.95474536    -0.02100
C699        C  0.57985275  0.93878517  0.41785872     0.04700
N700        N  0.57965400  0.99083988  0.37603946     0.67200
H701        H  0.62530608  0.93418221  0.39500495     0.16100
H702        H  0.53945968  0.85216239  0.02624981     0.15800
N703        N  0.58422628  0.79499970  0.04711654     0.74900
O704        O  0.58764286  0.03737921  0.38594887    -0.38500
O705        O  0.58026349  0.98787713  0.32508649    -0.38500
O706        O  0.58351360  0.80448795  0.09597402    -0.39200
O707        O  0.57589254  0.74615219  0.04315426    -0.39200
C708        C  0.65399254  0.74378334  0.13579185    -0.11500
C709        C  0.67091626  0.75814322  0.08082217     0.05500
C710        C  0.69411513  0.72431096  0.06772227    -0.06800
C711        C  0.69947896  0.67661700  0.10850838    -0.07500
C712        C  0.68289058  0.66259502  0.16360343    -0.02100
C713        C  0.65999453  0.69713418  0.17744550     0.04700
N714        N  0.64227129  0.68526231  0.23266316     0.67200
H715        H  0.63608927  0.76949828  0.14670835     0.16100
H716        H  0.71769666  0.65161188  0.09761716     0.15800
N717        N  0.71385240  0.73993451  0.01514867     0.74900
O718        O  0.64658476  0.71439462  0.26769289    -0.38500
O719        O  0.61814394  0.66024673  0.23944341    -0.38500
O720        O  0.73557506  0.77114628  0.01295139    -0.39200
O721        O  0.71474210  0.70849368  0.97988630    -0.39200
C722        C  0.64204129  0.70968038  0.48488928    -0.11500
C723        C  0.65347904  0.76507931  0.46198842     0.05500
C724        C  0.67324275  0.77589893  0.40986406    -0.06800
C725        C  0.68219797  0.73057566  0.38380283    -0.07500
C726        C  0.67189115  0.67395778  0.40852268    -0.02100
C727        C  0.65062396  0.66459077  0.45880539     0.04700
N728        N  0.63706561  0.60997935  0.48512824     0.67200
H729        H  0.62716139  0.70077313  0.52510294     0.16100
H730        H  0.69826486  0.73959474  0.34521093     0.15800
N731        N  0.68652758  0.83146565  0.38527409     0.74900
O732        O  0.64682386  0.57944029  0.52579853    -0.38500
O733        O  0.61083788  0.60480210  0.48436657    -0.38500
O734        O  0.70723338  0.84921074  0.87682453    -0.39200
O735        O  0.67783540  0.86202967  0.34328884    -0.39200
C736        C  0.88678844  0.86676939  0.49863419    -0.11500
C737        C  0.90744505  0.86312017  0.53254677     0.05500
C738        C  0.91556524  0.81045836  0.05896534    -0.06800
C739        C  0.90060506  0.75912922  0.05992306    -0.07500
C740        C  0.87742016  0.76325223  0.52751275    -0.02100
C741        C  0.87143575  0.81786508  0.49659220     0.04700
N742        N  0.85185508  0.82421041  0.45831658     0.67200
H743        H  0.88369496  0.90748609  0.47095564     0.16100
H744        H  0.90526239  0.71932935  0.08706336     0.15800
N745        N  0.93396399  0.81151638  0.09866852     0.74900
O746        O  0.82741863  0.84127542  0.47440931    -0.38500
O747        O  0.86168497  0.83286020  0.40561193    -0.38500
O748        O  0.92578316  0.83499597  0.13978512    -0.39200
O749        O  0.96014164  0.80349693  0.08478928    -0.39200
C750        C  0.79841246  0.58922483  0.14432852    -0.11500
C751        C  0.78428588  0.63182867  0.16829511     0.05500
C752        C  0.79348071  0.68994632  0.14303949    -0.06800
C753        C  0.81574307  0.70352011  0.09488024    -0.07500
C754        C  0.82863280  0.66072299  0.06930577    -0.02100
C755        C  0.82008913  0.60264363  0.09594547     0.04700
N756        N  0.83342415  0.55586776  0.07572778     0.67200
H757        H  0.79244667  0.54432937  0.16302480     0.16100
H758        H  0.82186083  0.74813824  0.07544433     0.15800
N759        N  0.77929612  0.73625037  0.16245134     0.74900
O760        O  0.85389905  0.53381331  0.09758618    -0.38500
O761        O  0.81275886  0.52794102  0.55079925    -0.38500
O762        O  0.79192691  0.76490707  0.18897975    -0.39200
O763        O  0.75983977  0.75912856  0.13772918    -0.39200
C764        C  0.82697284  0.58197447  0.43284762    -0.11500
C765        C  0.82349119  0.63218210  0.45317244     0.05500
C766        C  0.79820738  0.66160958  0.44987338    -0.06800
C767        C  0.77557116  0.63671220  0.43297569    -0.07500
C768        C  0.77859861  0.58503782  0.41463674    -0.02100
C769        C  0.80503527  0.55857422  0.41288761     0.04700
N770        N  0.81065370  0.50938081  0.38934132     0.67200
H771        H  0.84711682  0.56113545  0.43180184     0.16100
H772        H  0.75628559  0.65991130  0.42999083     0.15800
N773        N  0.79738469  0.72055762  0.45285534     0.74900
O774        O  0.82155178  0.51744924  0.33717470    -0.38500
O775        O  0.81486347  0.46280140  0.42208496    -0.38500
O776        O  0.80954529  0.75845599  0.41060046    -0.39200
O777        O  0.79284017  0.73907902  0.98842193    -0.39200
N778        N  0.84783279  0.67859789  0.51647884    -0.02700
C779        C  0.87233452  0.71225851  0.50496347    -0.00100
C780        C  0.89206213  0.69402022  0.95777934    -0.23000
C781        C  0.87599431  0.66096696  0.93500220    -0.23200
C782        C  0.84973828  0.65152278  0.97055833    -0.00200
H783        H  0.91265372  0.71467505  0.93699472     0.13600
H784        H  0.88192576  0.64955122  0.89424398     0.13600
N785        N  0.64882608  0.80698806  0.49645810    -0.02700
C786        C  0.63477040  0.85632840  0.48608579    -0.00100
C787        C  0.64010269  0.89003445  0.52256736    -0.23000
C788        C  0.65627365  0.85907471  0.55848823    -0.23200
C789        C  0.66090351  0.80755840  0.54250952    -0.00200
H790        H  0.62973355  0.92907971  0.52819095     0.13600
H791        H  0.66117233  0.87009485  0.59633005     0.13600
N792        N  0.79205532  0.25422765  0.59258519    -0.02700
C793        C  0.80458135  0.20399241  0.58830826    -0.00100
C794        C  0.79414407  0.16127627  0.63612628    -0.23000
C795        C  0.77471073  0.18554610  0.67124654    -0.23200
C796        C  0.77357094  0.24181434  0.64308419    -0.00200
H797        H  0.80240104  0.11901430  0.64729225     0.13600
H798        H  0.76447783  0.16586740  0.71444869     0.13600
N799        N  0.51454927  0.04465952  0.48580657    -0.35800
N800        N  0.98039660  0.95130287  0.98226511    -0.56400
N801        N  0.92903110  0.01784924  0.00055847    -0.35800
N802        N  0.96435724  0.11375463  0.50544202    -0.56400
C803        C  0.53261243  0.00104621  0.48795184     0.27700
C804        C  0.52513948  0.08426276  0.50942552     0.27700
C805        C  0.91810623  0.96349285  0.02192037     0.27700
C806        C  0.90840234  0.05539172  0.53045779     0.27700
C807        C  0.50400302  0.93115626  0.96598754     0.36400
C808        C  0.95961754  0.91297918  0.98178408     0.36400
C809        C  0.98563326  0.15299257  0.50072266     0.36400
C810        C  0.94009164  0.14264782  0.50263711     0.36400
C811        C  0.55514649  0.01317815  0.51260197    -0.21100
C812        C  0.55041847  0.06554295  0.52630426    -0.21100
C813        C  0.89093637  0.96448279  0.05348330    -0.21100
C814        C  0.88523026  0.02122911  0.05102099    -0.21100
C815        C  0.49855787  0.87999226  0.95129686    -0.22200
C816        C  0.97110883  0.87093428  0.95460844    -0.22200
C817        C  0.97480610  0.20716833  0.49532946    -0.22200
C818        C  0.94621160  0.20089534  0.49461657    -0.22200
C819        C  0.53154239  0.95572410  0.96297947    -0.17500
C820        C  0.51325138  0.13777100  0.51426694    -0.17500
C821        C  0.91226510  0.11597717  0.51549571    -0.17500
C822        C  0.93082449  0.91356543  0.00897187    -0.17500
H823        H  0.57296889  0.98676985  0.52052246     0.15400
H824        H  0.56430350  0.08755774  0.54586801     0.15400
H825        H  0.87654028  0.92808360  0.07538883     0.15400
H826        H  0.86582979  0.03693704  0.07162497     0.15400
H827        H  0.51388829  0.85368484  0.93174899     0.15300
H828        H  0.95994500  0.83406901  0.94826144     0.13700
H829        H  0.98602962  0.24696912  0.49367833     0.13700
H830        H  0.93141923  0.23506980  0.49196740     0.13700
H831        H  0.99647857  0.04972455  0.46183367     0.26900
H832        H  0.94766406  0.03023194  0.97072096     0.26900
N833        N  0.58516364  0.29693976  0.64593316    -0.02700
C834        C  0.55957627  0.26811207  0.65308645    -0.00100
C835        C  0.54185311  0.27448995  0.70253540    -0.23000
C836        C  0.55671841  0.30767488  0.72724992    -0.23200
C837        C  0.58284155  0.32121877  0.69179845    -0.00200
H838        H  0.52013071  0.25774512  0.71851949     0.13600
H839        H  0.54940567  0.32034929  0.76701082     0.13600
O840        O  0.67322883  0.57814536  0.89912072    -0.79400
O841        O  0.66557695  0.49185194  0.77801810    -0.79400
O842        O  0.69342638  0.61498487  0.75624458    -0.79400
O843        O  0.68279088  0.38735462  0.91882402    -0.79300
O844        O  0.69735836  0.56759975  0.68750917    -0.79500
O845        O  0.66046890  0.46512983  0.92973833    -0.79400
O846        O  0.68273255  0.40630859  0.80418543    -0.79400
O847        O  0.71010061  0.63386605  0.85363960    -0.79400
C848        C  0.68550246  0.62711938  0.88534814     1.10300
C849        C  0.66377310  0.43769169  0.78367851     1.10200
C850        C  0.69033588  0.61223808  0.70527856     1.10300
C851        C  0.66114542  0.41134152  0.94112973     1.10200
O852        O  0.71591710  0.44236490  0.96372958    -0.79400
O853        O  0.74674944  0.56219907  0.72605462    -0.79500
O854        O  0.75762483  0.55909738  0.84227828    -0.79400
O855        O  0.74482395  0.43781871  0.78266494    -0.79400
O856        O  0.71818570  0.46407839  0.72127390    -0.79400
O857        O  0.73043789  0.55785221  0.92570467    -0.79400
O858        O  0.74381213  0.42095020  0.89097130    -0.79300
O859        O  0.74925424  0.64456597  0.75160752    -0.79400
Co860      Co  0.69536316  0.51100797  0.92408476     1.51500
Co861      Co  0.70460620  0.52823520  0.75857352     1.51700
Co862      Co  0.72569519  0.58146299  0.80170070     1.51600
Co863      Co  0.71359074  0.41810036  0.84824422     1.51500
O864        O  0.70747150  0.50291504  0.84183776    -1.41300
C865        C  0.73720375  0.41618863  0.94345023     1.10200
C866        C  0.75889482  0.61285871  0.71799973     1.10300
C867        C  0.75491720  0.56362939  0.89335490     1.10300
C868        C  0.73793080  0.43365702  0.73717659     1.10200
C869        C  0.60656795  0.41151554  0.69865935    -0.11500
C870        C  0.60579623  0.35168594  0.70812656     0.05500
C871        C  0.62265815  0.32046236  0.74427907    -0.06800
C872        C  0.64048059  0.34920665  0.76975594    -0.07500
C873        C  0.64190113  0.40974543  0.76009487    -0.02100
C874        C  0.62444785  0.44086077  0.72375600     0.04700
N875        N  0.62430956  0.50204632  0.71140823     0.67200
H876        H  0.59269218  0.43563178  0.67257781     0.16100
H877        H  0.65331517  0.32369979  0.79724055     0.15800
N878        N  0.62069457  0.25910581  0.75735743     0.74900
O879        O  0.63852982  0.52981124  0.66464895    -0.38500
O880        O  0.60354415  0.52533061  0.73598176    -0.38500
O881        O  0.63233389  0.23299840  0.72041510    -0.39200
O882        O  0.60146666  0.23299604  0.79739492    -0.39200
C883        C  0.64396855  0.31975158  0.51490079    -0.11500
C884        C  0.63848458  0.37798416  0.98729157     0.05500
C885        C  0.61274757  0.40268302  0.00691719    -0.06800
C886        C  0.59815630  0.37532040  0.56333426    -0.07500
C887        C  0.60357799  0.32066517  0.59195122    -0.02100
C888        C  0.62608223  0.29143181  0.56610975     0.04700
N889        N  0.63087707  0.23307263  0.58978916     0.67200
H890        H  0.66183692  0.29768924  0.49715532     0.16100
H891        H  0.58029213  0.39729409  0.58170246     0.15800
N892        N  0.60315143  0.45335994  0.97436327     0.74900
O893        O  0.61904436  0.19454679  0.57279794    -0.38500
O894        O  0.65336369  0.22185773  0.60944953    -0.38500
O895        O  0.58445835  0.44834323  0.94518897    -0.39200
O896        O  0.60511903  0.49925425  0.99064754    -0.39200
C897        C  0.55368734  0.25593777  0.55632004    -0.11500
C898        C  0.55055448  0.23367863  0.61524205     0.05500
C899        C  0.53609950  0.17964776  0.63906710    -0.06800
C900        C  0.52391438  0.15095884  0.60493913    -0.07500
C901        C  0.52692180  0.17293802  0.54627635    -0.02100
C902        C  0.54279871  0.22533672  0.52142134     0.04700
N903        N  0.54811135  0.25322687  0.95914596     0.67200
H904        H  0.56416563  0.29751076  0.53686461     0.16100
H905        H  0.51246046  0.11006063  0.62434358     0.15800
N906        N  0.53448126  0.15186086  0.69760138     0.74900
O907        O  0.53376416  0.29415103  0.93872598    -0.38500
O908        O  0.57259842  0.24736758  0.93187674    -0.38500
O909        O  0.51089652  0.14835385  0.73146062    -0.39200
O910        O  0.55331874  0.11723453  0.71068742    -0.39200
C911        C  0.83687814  0.16936887  0.51288150    -0.11500
C912        C  0.83347123  0.19951675  0.55616161     0.05500
C913        C  0.85713455  0.20917543  0.58032712    -0.06800
C914        C  0.88296677  0.18377449  0.56512515    -0.07500
C915        C  0.88622611  0.15079485  0.52358185    -0.02100
C916        C  0.86304171  0.14601448  0.49556882     0.04700
N917        N  0.86413062  0.11822504  0.94304596     0.67200
H918        H  0.81844576  0.16390012  0.98930558     0.16100
H919        H  0.90009622  0.18765975  0.58779016     0.15800
N920        N  0.85420139  0.24054516  0.62421612     0.74900
O921        O  0.85294449  0.06826988  0.95245907    -0.38500
O922        O  0.86703654  0.14944851  0.89343127    -0.38500
O923        O  0.84633350  0.21430000  0.67547908    -0.39200
O924        O  0.85276838  0.29435913  0.61107062    -0.39200
C925        C  0.78017388  0.30897632  0.70149596    -0.11500
C926        C  0.76224091  0.28638125  0.67190778     0.05500
C927        C  0.73634513  0.31172268  0.66424447    -0.06800
C928        C  0.72958008  0.36158200  0.68342589    -0.07500
C929        C  0.74792328  0.38565630  0.71163264    -0.02100
C930        C  0.77326252  0.35805392  0.72180872     0.04700
N931        N  0.79325606  0.38108897  0.74891929     0.67200
H932        H  0.80031800  0.28974664  0.70676233     0.16100
H933        H  0.70933296  0.38024235  0.67807272     0.15800
N934        N  0.71606380  0.28605762  0.63990602     0.74900
O935        O  0.79418005  0.35799336  0.80004745    -0.38500
O936        O  0.81486136  0.41011634  0.71818514    -0.38500
O937        O  0.71096232  0.31162741  0.59219400    -0.39200
O938        O  0.69755568  0.25023472  0.67271674    -0.39200
C939        C  0.76956312  0.39388214  0.51269986    -0.11500
C940        C  0.75307193  0.37478405  0.97960084     0.05500
C941        C  0.75319559  0.31625338  0.97676675    -0.06800
C942        C  0.76940479  0.27797245  0.00851721    -0.07500
C943        C  0.78523652  0.29675494  0.54549041    -0.02100
C944        C  0.78676703  0.35649958  0.54363050     0.04700
N945        N  0.80693017  0.38086218  0.56924470     0.67200
H946        H  0.77063757  0.43929768  0.51217935     0.16100
H947        H  0.76693449  0.23252672  0.01012386     0.15800
N948        N  0.73543504  0.29360967  0.94506608     0.74900
O949        O  0.83222771  0.39046113  0.54211159    -0.38500
O950        O  0.79794503  0.41100912  0.60436680    -0.38500
O951        O  0.74686567  0.28163010  0.89870358    -0.39200
O952        O  0.71202194  0.26828849  0.97133506    -0.39200
C953        C  0.60846075  0.91522880  0.92023257    -0.11500
C954        C  0.60774088  0.86340388  0.46393146     0.05500
C955        C  0.58210387  0.83620826  0.49831091    -0.06800
C956        C  0.55610676  0.86261371  0.49490897    -0.07500
C957        C  0.55486347  0.91573968  0.45747981    -0.02100
C958        C  0.58254583  0.94155540  0.91471724     0.04700
N959        N  0.58276328  0.99172055  0.87037466     0.67200
H960        H  0.62796920  0.93531851  0.89285089     0.16100
H961        H  0.53724431  0.84402454  0.52551988     0.15800
N962        N  0.58236929  0.78598691  0.54233228     0.74900
O963        O  0.59142990  0.03915281  0.87728187    -0.38500
O964        O  0.58351017  0.98554124  0.82033325    -0.38500
O965        O  0.58131558  0.79155282  0.59265829    -0.39200
O966        O  0.57454143  0.73835904  0.53451352    -0.39200
C967        C  0.65056131  0.73940983  0.63723558    -0.11500
C968        C  0.66794039  0.75567978  0.58283202     0.05500
C969        C  0.69206312  0.72418285  0.56997961    -0.06800
C970        C  0.69804536  0.67692301  0.61049233    -0.07500
C971        C  0.68116912  0.66136702  0.66520667    -0.02100
C972        C  0.65719061  0.69333869  0.67875253     0.04700
N973        N  0.63917995  0.67964519  0.73366163     0.67200
H974        H  0.63194029  0.76339845  0.64793274     0.16100
H975        H  0.71698149  0.65370541  0.59986318     0.15800
N976        N  0.71219712  0.74234698  0.51827684     0.74900
O977        O  0.64296200  0.70757704  0.76999303    -0.38500
O978        O  0.61534024  0.65388327  0.73933769    -0.38500
O979        O  0.73260398  0.77640049  0.51743291    -0.39200
O980        O  0.71487260  0.71149377  0.48225329    -0.39200
C981        C  0.64387677  0.71079100  0.98753106    -0.11500
C982        C  0.65390729  0.76672396  0.96188922     0.05500
C983        C  0.67147399  0.77758617  0.90718616    -0.06800
C984        C  0.68056643  0.73179996  0.88194162    -0.07500
C985        C  0.67212871  0.67483942  0.90965039    -0.02100
C986        C  0.65243721  0.66516602  0.96220182     0.04700
N987        N  0.64097725  0.60960377  0.99211252     0.67200
H988        H  0.63034963  0.70204574  0.02932963     0.16100
H989        H  0.69504391  0.74087724  0.84118813     0.15800
N990        N  0.68172085  0.83433302  0.87785610     0.74900
O991        O  0.65386587  0.58110954  0.02893722    -0.38500
O992        O  0.61437563  0.60123520  0.99860686    -0.38500
O993        O  0.71152180  0.84097057  0.39216988    -0.39200
O994        O  0.66918785  0.86068673  0.83935476    -0.39200
C995        C  0.89140959  0.86138356  0.98575435    -0.11500
C996        C  0.91214731  0.86095166  0.01901328     0.05500
C997        C  0.91046557  0.81067545  0.57006256    -0.06800
C998        C  0.89615027  0.76044980  0.56614149    -0.07500
C999        C  0.88117682  0.75858129  0.02309576    -0.02100
C1000       C  0.87582132  0.81134255  0.98773025     0.04700
N1001       N  0.85685627  0.81435948  0.94860912     0.67200
H1002       H  0.88827476  0.90049019  0.95571804     0.16100
H1003       H  0.90079854  0.71921360  0.59076177     0.15800
N1004       N  0.92781818  0.80873379  0.61210984     0.74900
O1005       O  0.83297549  0.83551648  0.96053619    -0.38500
O1006       O  0.86739412  0.81696862  0.89696187    -0.38500
O1007       O  0.91880875  0.83012282  0.65435076    -0.39200
O1008       O  0.95404179  0.80026345  0.59998788    -0.39200
C1009       C  0.79572631  0.58993822  0.64157837    -0.11500
C1010       C  0.78396816  0.63146571  0.67018257     0.05500
C1011       C  0.79563909  0.68864218  0.64989166    -0.06800
C1012       C  0.81688487  0.70305200  0.60029161    -0.07500
C1013       C  0.82748772  0.66178986  0.57004732    -0.02100
C1014       C  0.81727696  0.60385766  0.59309357     0.04700
N1015       N  0.82902117  0.55739952  0.56992236     0.67200
H1016       H  0.78821425  0.54538726  0.65702332     0.16100
H1017       H  0.82425225  0.74748355  0.58432964     0.15800
N1018       N  0.78611432  0.73334289  0.67784127     0.74900
O1019       O  0.85012935  0.53377549  0.58813221    -0.38500
O1020       O  0.81889357  0.52511448  0.05444935    -0.38500
O1021       O  0.80169022  0.74961241  0.70836958    -0.39200
O1022       O  0.76871919  0.76763365  0.65730198    -0.39200
C1023       C  0.82722414  0.57665745  0.93508172    -0.11500
C1024       C  0.82476607  0.62794664  0.95373929     0.05500
C1025       C  0.80059238  0.66024782  0.94689465    -0.06800
C1026       C  0.77760150  0.63681226  0.92985032    -0.07500
C1027       C  0.77953548  0.58416545  0.91337187    -0.02100
C1028       C  0.80532304  0.55539720  0.91330247     0.04700
N1029       N  0.81073690  0.50733581  0.88784251     0.67200
H1030       H  0.84679721  0.55392599  0.93561756     0.16100
H1031       H  0.75905653  0.66200024  0.92484294     0.15800
N1032       N  0.80181024  0.72034465  0.94459036     0.74900
O1033       O  0.82006690  0.51717453  0.83490087    -0.38500
O1034       O  0.81639627  0.46054211  0.91835783    -0.38500
O1035       O  0.81431441  0.75427727  0.89957098    -0.39200
O1036       O  0.78799840  0.73414268  0.49939152    -0.39200
loop_ 
_geom_bond_atom_site_label_1 
_geom_bond_atom_site_label_2 
_geom_bond_distance 
_geom_bond_site_symmetry_2 
_ccdc_geom_bond_type 
N1            C2   1.367       .  A
N1          C264   1.363   1_554  A
N1          C236   1.455       .  S
C2          C262   1.385   1_554  A
C2          C481   1.487       .  S
C3            C4   1.368       .  A
C3          C261   1.385       .  A
C3            H6   1.083       .  S
C4            C5   1.377       .  A
C4            H7   1.082       .  S
C5          N260   1.362       .  A
C5          C247   1.477       .  S
N8           C12   1.362   1_556  A
N8            C9   1.356       .  A
N8          C464   1.441       .  S
C9           C10   1.383   1_556  A
C9          C177   1.483       .  S
C10          C11   1.373       .  A
C10          H13   1.083       .  S
C11          C12   1.380       .  A
C11          H14   1.082       .  S
C12         C191   1.488       .  S
N15          C19   1.357       .  A
N15          C16   1.363       .  A
N15         C166   1.446       .  S
C16          C17   1.385       .  A
C16         C135   1.480       .  S
C17          C18   1.369       .  A
C17          H20   1.083       .  S
C18          C19   1.376       .  A
C18          H21   1.082       .  S
C19         C149   1.462       .  S
N22          C27   1.354       .  A
N22          C26   1.356       .  A
N22         H572   1.039   1_455  S
N23          C31   1.351       .  A
N23         C548   1.355       .  A
N24          C28   1.352   1_545  A
N24         C288   1.354       .  A
N24          H55   1.058       .  S
N25          C32   1.353       .  A
N25          C33   1.357       .  A
C26          C34   1.386   1_556  A
C26         C301   1.416   1_545  A
C27          C43   1.421   1_556  A
C27          C35   1.391   1_556  A
C28          C36   1.386       .  A
C28          C45   1.413       .  A
C29         N283   1.356       .  A
C29          C44   1.419       .  A
C29         C296   1.387       .  A
C30         N541   1.355   1_455  A
C30          C42   1.417       .  A
C30          C38   1.385   1_455  A
C31          C45   1.418       .  A
C31          C39   1.388       .  A
C32          C40   1.385   1_554  A
C32         C561   1.417       .  A
C33          C41   1.385   1_554  A
C33          C44   1.423       .  A
C34          C35   1.375       .  A
C34          H46   1.083   1_545  S
C35          H47   1.082       .  S
C36          C37   1.376   1_565  A
C36          H48   1.082       .  S
C37         C288   1.386       .  A
C37          H49   1.082       .  S
C38         C557   1.377       .  A
C38          H50   1.082   1_655  S
C39         C556   1.378       .  A
C39          H51   1.082       .  S
C40          C41   1.376       .  A
C40          H52   1.080       .  S
C41          H53   1.082       .  S
C42         C285   1.416   1_565  A
C42         C439   1.501       .  S
C43         C550   1.417   1_454  A
C43         C124   1.490       .  S
C44         C138   1.510       .  S
C45         C219   1.487       .  S
H54         N540   1.038       .  S
N56          C60   1.361       .  A
N56          C57   1.363       .  A
N56         C110   1.445       .  S
C57          C58   1.385       .  A
C57         C121   1.485       .  S
C58          C59   1.367       .  A
C58          H61   1.081       .  S
C59          C60   1.377       .  A
C59          H62   1.082       .  S
C60          C93   1.474       .  S
O63          C71   1.256       .  A
O63         Co83   1.976       .  S
O64          C72   1.273       .  A
O64         Co84   1.984       .  S
O65          C73   1.300       .  A
O65         Co85   2.117       .  S
O66          C74   1.278       .  A
O66         Co86   2.048       .  S
O67          C73   1.264       .  A
O67         Co84   1.885       .  S
O68          C74   1.257       .  A
O68         Co83   1.962       .  S
O69          C72   1.281       .  A
O69         Co86   2.031       .  S
O70          C71   1.273       .  A
O70         Co85   2.028       .  S
C71         C208   1.499       .  S
C72          C96   1.501       .  S
C73         C194   1.480       .  S
C74         C107   1.499       .  S
O75          C88   1.278       .  A
O75         Co83   2.064       .  S
O76          C89   1.300       .  A
O76         Co84   2.115       .  S
O77          C90   1.264       .  A
O77         Co85   1.983       .  S
O78          C91   1.242       .  A
O78         Co86   1.953       .  S
O79          C91   1.259       .  A
O79         Co84   2.007       .  S
O80          C90   1.276       .  A
O80         Co83   2.026       .  S
O81          C88   1.247       .  A
O81         Co86   1.936       .  S
O82          C89   1.267       .  A
O82         Co85   1.923       .  S
Co83         O87   2.051       .  S
Co84         O87   2.034       .  S
Co85         O87   2.026       .  S
Co86         O87   2.027       .  S
C88         C163   1.483       .  S
C89         C233   1.503       .  S
C90         C250   1.478       .  S
C91         C152   1.470       .  S
C92          C93   1.396       .  A
C92          C97   1.406       .  A
C92          H99   1.084       .  S
C93          C94   1.402       .  A
C94         N101   1.430       .  S
C94          C95   1.401       .  A
C95          C96   1.413       .  A
C95         H100   1.083       .  S
C96          C97   1.423       .  A
C97          N98   1.427       .  S
N98         O102   1.262       .  A
N98         O103   1.262       .  A
N101        O105   1.262       .  A
N101        O104   1.261       .  A
C106        C111   1.410       .  A
C106        C366   1.406   1_554  A
C106        H113   1.080       .  S
C107        C108   1.417       .  A
C107        C365   1.405       .  A
C108        N115   1.422       .  S
C108        C368   1.397       .  A
C109        C110   1.394       .  A
C109        C367   1.397       .  A
C109        H114   1.084       .  S
C110        C111   1.412       .  A
C111        N112   1.426       .  S
N112        O116   1.262       .  A
N112        O117   1.261       .  A
N115        O119   1.257       .  A
N115        O118   1.262       .  A
C120        C121   1.404       .  A
C120        C125   1.403       .  A
C120        H127   1.079       .  S
C121        C122   1.415       .  A
C122        N129   1.430       .  S
C122        C123   1.392       .  A
C123        C124   1.399       .  A
C123        H128   1.085       .  S
C124        C125   1.413       .  A
C125        N385   1.428   1_554  S
N126        C384   1.428       .  S
N126        O130   1.262       .  A
N126        O131   1.262       .  A
N129        O133   1.262       .  A
N129        O132   1.262       .  A
C134        C135   1.397       .  A
C134        C139   1.406   1_554  A
C134        H400   1.084   1_554  S
C135        C136   1.409       .  A
C136        N143   1.430       .  S
C136        C137   1.405       .  A
C137        C138   1.408       .  A
C137        H142   1.084       .  S
C138        C139   1.421   1_554  A
C139        N399   1.428       .  S
N140        C398   1.429       .  S
N140        O144   1.262       .  A
N140        O145   1.262       .  A
H141        C393   1.084       .  S
N143        O147   1.262       .  A
N143        O146   1.262       .  A
C148        C149   1.394       .  A
C148        C153   1.392       .  A
C148        H155   1.085       .  S
C149        C150   1.406       .  A
C150        N157   1.427       .  S
C150        C151   1.394       .  A
C151        C152   1.402       .  A
C151        H156   1.084       .  S
C152        C153   1.418       .  A
C153        N154   1.429       .  S
N154        O158   1.262       .  A
N154        O159   1.262       .  A
N157        O161   1.261       .  A
N157        O160   1.261       .  A
C162        C167   1.409       .  A
C162        C422   1.398   1_554  A
C162        H169   1.084       .  S
C163        C164   1.417       .  A
C163        C421   1.398       .  A
C164        N171   1.428       .  S
C164        C165   1.398       .  A
C165        C425   1.398       .  A
C165        H170   1.084       .  S
C166        C167   1.422       .  A
C166        C424   1.398       .  A
C167        N168   1.428       .  S
N168        O172   1.262       .  A
N168        O173   1.261       .  A
N171        O175   1.261       .  A
N171        O174   1.261       .  A
C176        C181   1.405       .  A
C176        C436   1.400       .  A
C176        H183   1.084       .  S
C177        C178   1.415       .  A
C177        C435   1.400       .  A
C178        N185   1.428   1_556  S
C178        C179   1.402       .  A
C179        C180   1.403       .  A
C179        H184   1.084   1_556  S
C180        C440   1.417       .  A
C180        C301   1.503       .  S
C181        N182   1.428       .  S
C181        C439   1.417       .  A
N182        O186   1.262   1_565  A
N182        O187   1.262       .  A
N185        O189   1.262       .  A
N185        O188   1.262       .  A
C190        C191   1.407       .  A
C190        C195   1.404       .  A
C190        H197   1.084       .  S
C191        C192   1.406       .  A
C192        N199   1.425       .  S
C192        C193   1.400       .  A
C193        C194   1.405       .  A
C193        H198   1.085       .  S
C194        C195   1.409       .  A
C195        N196   1.428       .  S
N196        O200   1.262       .  A
N196        O201   1.262       .  A
N199        O203   1.260   1_554  A
N199        O202   1.261       .  A
C204        C205   1.387       .  A
C204        C209   1.399       .  A
C204        H211   1.082       .  S
C205        N267   1.440       .  S
C205        C206   1.414       .  A
C206        N213   1.426       .  S
C206        C207   1.405       .  A
C207        C208   1.402       .  A
C207        H212   1.084       .  S
C208        C209   1.423       .  A
C209        N210   1.419       .  S
N210        O214   1.262       .  A
N210        O215   1.262       .  A
N213        O217   1.261       .  A
N213        O475   1.262       .  A
O216        N472   1.262       .  A
C218        C219   1.392       .  A
C218        C223   1.394       .  A
C218        H225   1.084       .  S
C219        C479   1.407       .  A
C220        N227   1.429       .  S
C220        C221   1.413       .  A
C220        C478   1.408       .  A
C221        C481   1.410       .  A
C221        H226   1.083       .  S
C222        C223   1.419       .  A
C222        C480   1.408       .  A
C222        C261   1.486       .  S
C223        N224   1.427       .  S
N224        O228   1.262       .  A
N224        O229   1.262       .  A
N227        O231   1.261       .  A
N227        O230   1.262       .  A
C232        C233   1.402       .  A
C232        C237   1.402       .  A
C232        H239   1.084       .  S
C233        C234   1.422       .  A
C234        N241   1.426       .  S
C234        C235   1.411       .  A
C235        C236   1.401       .  A
C235        H240   1.083       .  S
C236        C237   1.420       .  A
C237        N238   1.429       .  S
N238        O242   1.262       .  A
N238        O502   1.261       .  A
N241        O245   1.262       .  A
N241        O244   1.262       .  A
O243        N497   1.261       .  A
C246        C247   1.398       .  A
C246        C251   1.399       .  A
C246        H253   1.084       .  S
C247        C248   1.407       .  A
C248        N255   1.428       .  S
C248        C249   1.401       .  A
C249        C250   1.405       .  A
C249        H254   1.082       .  S
C250        C251   1.414       .  A
C251        N252   1.427       .  S
N252        O256   1.262       .  A
N252        O257   1.261       .  A
N255        O518   1.259       .  A
N255        O258   1.262       .  A
O259        N514   1.259       .  A
N260        C261   1.366       .  A
N260        C495   1.457       .  S
C262        C263   1.368       .  A
C262        H265   1.083       .  S
C263        C264   1.377       .  A
C263        H266   1.082       .  S
C264        C506   1.482       .  S
N267        C271   1.360       .  A
N267        C268   1.356       .  A
C268        C269   1.382       .  A
C268        C436   1.482       .  S
C269        C270   1.372       .  A
C269        H272   1.083       .  S
C270        C271   1.382       .  A
C270        H273   1.082       .  S
C271        C450   1.486       .  S
N274        C278   1.357       .  A
N274        C275   1.363       .  A
N274        C425   1.447       .  S
C275        C276   1.385       .  A
C275        C394   1.481       .  S
C276        C277   1.369       .  A
C276        H279   1.083       .  S
C277        C278   1.377       .  A
C277        H280   1.082       .  S
C278        C408   1.461       .  S
N281        C286   1.353       .  A
N281        C285   1.354       .  A
N281        H831   1.068   1_455  S
N282        C807   1.357       .  A
N282        C290   1.353       .  A
N283        C287   1.353   1_545  A
N283        H314   1.036   1_554  S
N284        C291   1.353       .  A
N284        C292   1.358       .  A
C285        C293   1.385       .  A
C286        C302   1.421       .  A
C286        C294   1.389       .  A
C287        C295   1.388       .  A
C287        C304   1.417       .  A
C288        C303   1.418       .  A
C289        N800   1.355   1_455  A
C289        C301   1.417       .  A
C289        C297   1.386   1_455  A
C290        C304   1.421   1_556  A
C290        C298   1.388       .  A
C291        C299   1.385       .  A
C291        C820   1.418       .  A
C292        C300   1.385       .  A
C292        C303   1.425       .  A
C293        C294   1.375       .  A
C293        H305   1.082   1_545  S
C294        H306   1.082       .  S
C295        C296   1.375   1_565  A
C295        H307   1.083       .  S
C296        H308   1.082       .  S
C297        C816   1.377       .  A
C297        H309   1.082   1_655  S
C298        C815   1.377       .  A
C298        H310   1.082       .  S
C299        C300   1.378       .  A
C299        H311   1.079       .  S
C300        H312   1.081       .  S
C302        C809   1.415   1_455  A
C302        C383   1.488       .  S
C303        C397   1.513       .  S
C304        C478   1.492       .  S
H313        N799   1.058       .  S
N315        C319   1.361       .  A
N315        C316   1.365       .  A
N315        C369   1.445       .  S
C316        C317   1.386       .  A
C316        C380   1.488       .  S
C317        C318   1.367       .  A
C317        H320   1.080       .  S
C318        C319   1.376       .  A
C318        H321   1.082       .  S
C319        C352   1.475       .  S
O322        C330   1.254       .  A
O322       Co342   1.965       .  S
O323        C331   1.272       .  A
O323       Co343   1.986       .  S
O324        C332   1.299       .  A
O324       Co344   2.116       .  S
O325        C333   1.278       .  A
O325       Co345   2.049       .  S
O326        C332   1.264       .  A
O326       Co343   1.880       .  S
O327        C333   1.257       .  A
O327       Co342   1.963       .  S
O328        C331   1.281       .  A
O328       Co345   2.032       .  S
O329        C330   1.272       .  A
O329       Co344   2.028       .  S
C330        C467   1.489       .  S
C331        C355   1.503       .  S
C332        C453   1.475       .  S
C333        C366   1.500       .  S
O334        C347   1.276       .  A
O334       Co342   2.056       .  S
O335        C348   1.301       .  A
O335       Co343   2.119       .  S
O336        C349   1.267       .  A
O336       Co344   1.987       .  S
O337        C350   1.243       .  A
O337       Co345   1.954       .  S
O338        C350   1.258       .  A
O338       Co343   2.004       .  S
O339        C349   1.276       .  A
O339       Co342   2.026       .  S
O340        C347   1.247       .  A
O340       Co345   1.937       .  S
O341        C348   1.268       .  A
O341       Co344   1.924       .  S
Co342       O346   2.047       .  S
Co343       O346   2.032       .  S
Co344       O346   2.027       .  S
Co345       O346   2.027       .  S
C347        C422   1.478       .  S
C348        C492   1.505       .  S
C349        C509   1.482       .  S
C350        C411   1.469       .  S
C351        C352   1.397       .  A
C351        C356   1.407       .  A
C351        H358   1.084       .  S
C352        C353   1.402       .  A
C353        N360   1.430       .  S
C353        C354   1.401       .  A
C354        C355   1.413       .  A
C354        H359   1.083       .  S
C355        C356   1.424       .  A
C356        N357   1.427       .  S
N357        O361   1.262       .  A
N357        O362   1.262       .  A
N360        O364   1.262       .  A
N360        O363   1.261       .  A
C365        C370   1.409       .  A
C365        H372   1.079       .  S
C366        C367   1.418   1_556  A
C367        N374   1.424   1_554  S
C368        C369   1.394       .  A
C368        H373   1.084       .  S
C369        C370   1.413       .  A
C370        N371   1.425       .  S
N371        O375   1.262       .  A
N371        O376   1.261       .  A
N374        O378   1.257       .  A
N374        O377   1.261       .  A
C379        C380   1.405       .  A
C379        C384   1.402       .  A
C379        H386   1.078       .  S
C380        C381   1.417       .  A
C381        N388   1.430       .  S
C381        C382   1.392       .  A
C382        C383   1.398       .  A
C382        H387   1.085       .  S
C383        C384   1.412       .  A
N385        O389   1.262       .  A
N385        O390   1.262       .  A
N388        O392   1.262       .  A
N388        O391   1.262       .  A
C393        C394   1.396       .  A
C393        C398   1.406       .  A
C394        C395   1.409       .  A
C395        N402   1.429       .  S
C395        C396   1.406       .  A
C396        C397   1.409       .  A
C396        H401   1.083       .  S
C397        C398   1.423       .  A
N399        O403   1.262       .  A
N399        O404   1.262       .  A
N402        O406   1.261       .  A
N402        O405   1.262       .  A
C407        C408   1.395       .  A
C407        C412   1.390       .  A
C407        H414   1.085       .  S
C408        C409   1.407       .  A
C409        N416   1.428       .  S
C409        C410   1.395       .  A
C410        C411   1.403       .  A
C410        H415   1.084       .  S
C411        C412   1.416       .  A
C412        N413   1.429       .  S
N413        O417   1.262       .  A
N413        O418   1.262       .  A
N416        O420   1.261       .  A
N416        O419   1.261       .  A
C421        C426   1.409       .  A
C421        H428   1.084       .  S
C422        C423   1.414       .  A
C423        N430   1.428       .  S
C423        C424   1.395   1_556  A
C424        H429   1.084       .  S
C425        C426   1.421       .  A
C426        N427   1.427       .  S
N427        O431   1.262       .  A
N427        O432   1.261       .  A
N430        O434   1.261       .  A
N430        O433   1.261       .  A
C435        C440   1.404       .  A
C435        H442   1.084       .  S
C436        C437   1.416       .  A
C437        N444   1.428       .  S
C437        C438   1.400       .  A
C438        C439   1.401       .  A
C438        H443   1.084       .  S
C440        N441   1.428       .  S
N441        O445   1.262   1_565  A
N441        O446   1.262       .  A
N444        O448   1.262       .  A
N444        O447   1.262       .  A
C449        C450   1.409       .  A
C449        C454   1.403       .  A
C449        H456   1.084       .  S
C450        C451   1.406       .  A
C451        N458   1.423       .  S
C451        C452   1.397       .  A
C452        C453   1.402       .  A
C452        H457   1.085       .  S
C453        C454   1.408       .  A
C454        N455   1.428       .  S
N455        O459   1.262       .  A
N455        O460   1.262       .  A
N458        O462   1.260       .  A
N458        O461   1.261       .  A
C463        C464   1.388       .  A
C463        C468   1.397       .  A
C463        H470   1.084   1_556  S
C464        C465   1.416       .  A
C465        N472   1.426       .  S
C465        C466   1.405       .  A
C466        C467   1.401       .  A
C466        H471   1.084       .  S
C467        C468   1.422       .  A
C468        N469   1.424       .  S
N469        O473   1.262   1_556  A
N469        O474   1.260   1_556  A
N472        O476   1.262       .  A
C477        C478   1.393   1_556  A
C477        C482   1.394       .  A
C477        H484   1.084       .  S
C479        N486   1.429       .  S
C479        C480   1.411       .  A
C480        H485   1.083       .  S
C481        C482   1.417   1_554  A
C482        N483   1.426       .  S
N483        O487   1.262       .  A
N483        O488   1.262       .  A
N486        O490   1.261       .  A
N486        O489   1.262       .  A
C491        C492   1.402       .  A
C491        C496   1.404       .  A
C491        H498   1.084       .  S
C492        C493   1.422       .  A
C493        N500   1.426       .  S
C493        C494   1.411       .  A
C494        C495   1.400       .  A
C494        H499   1.083       .  S
C495        C496   1.421       .  A
C496        N497   1.429       .  S
N497        O501   1.262       .  A
N500        O504   1.262       .  A
N500        O503   1.262       .  A
C505        C506   1.399       .  A
C505        C510   1.399       .  A
C505        H512   1.084       .  S
C506        C507   1.408       .  A
C507        N514   1.427       .  S
C507        C508   1.403       .  A
C508        C509   1.405       .  A
C508        H513   1.082       .  S
C509        C510   1.412       .  A
C510        N511   1.427       .  S
N511        O515   1.262       .  A
N511        O516   1.261       .  A
N514        O517   1.262       .  A
N519        C782   1.362   1_554  A
N519        C520   1.366       .  A
N519        C754   1.458       .  S
C520        C780   1.385   1_554  A
C520        C999   1.484       .  S
C521        C779   1.384       .  A
C521        C522   1.367       .  A
C521        H524   1.083       .  S
C522        C523   1.377       .  A
C522        H525   1.082       .  S
C523        N778   1.362       .  A
C523        C765   1.474       .  S
N526        C530   1.362   1_556  A
N526        C527   1.358       .  A
N526        C982   1.441       .  S
C527        C528   1.383   1_556  A
C527        C695   1.485       .  S
C528        C529   1.373       .  A
C528        H531   1.083       .  S
C529        C530   1.381       .  A
C529        H532   1.082       .  S
C530        C709   1.490       .  S
N533        C537   1.356       .  A
N533        C534   1.361       .  A
N533        C684   1.447       .  S
C534        C535   1.386       .  A
C534        C653   1.477       .  S
C535        C536   1.369       .  A
C535        H538   1.083       .  S
C536        C537   1.376       .  A
C536        H539   1.082       .  S
C537        C667   1.460       .  S
N540        C545   1.356   1_556  A
N540        C544   1.357       .  A
N541        C549   1.351       .  A
N542        C806   1.353       .  A
N542        C546   1.350   1_545  A
N542        H573   1.066       .  S
N543        C550   1.353       .  A
N543        C551   1.357       .  A
C544        C552   1.387   1_556  A
C544        C819   1.418   1_545  A
C545        C561   1.422       .  A
C545        C553   1.390       .  A
C546        C554   1.387       .  A
C546        C563   1.413       .  A
C547        N801   1.355       .  A
C547        C562   1.417       .  A
C547        C814   1.387       .  A
C548        C560   1.417       .  A
C548        C556   1.385       .  A
C549        C563   1.418       .  A
C549        C557   1.388       .  A
C550        C558   1.385       .  A
C551        C559   1.385       .  A
C551        C562   1.423   1_556  A
C552        C553   1.375       .  A
C552        H564   1.083   1_545  S
C553        H565   1.082       .  S
C554        C555   1.376   1_565  A
C554        H566   1.082       .  S
C555        C806   1.386       .  A
C555        H567   1.082       .  S
C556        H568   1.082       .  S
C557        H569   1.082       .  S
C558        C559   1.376       .  A
C558        H570   1.079       .  S
C559        H571   1.082       .  S
C560        C803   1.416   1_565  A
C560        C957   1.503       .  S
C561        C642   1.490       .  S
C562        C656   1.509       .  S
C563        C737   1.486       .  S
N574        C578   1.361       .  A
N574        C575   1.365       .  A
N574        C628   1.443       .  S
C575        C576   1.386       .  A
C575        C639   1.491       .  S
C576        C577   1.367       .  A
C576        H579   1.080       .  S
C577        C578   1.376       .  A
C577        H580   1.082       .  S
C578        C611   1.476       .  S
O581        C589   1.257       .  A
O581       Co601   1.975       .  S
O582        C590   1.272       .  A
O582       Co602   1.981       .  S
O583        C591   1.299       .  A
O583       Co603   2.119       .  S
O584        C592   1.278       .  A
O584       Co604   2.052       .  S
O585        C591   1.264       .  A
O585       Co602   1.883       .  S
O586        C592   1.257       .  A
O586       Co601   1.958       .  S
O587        C590   1.281       .  A
O587       Co604   2.033       .  S
O588        C589   1.274       .  A
O588       Co603   2.028       .  S
C589        C726   1.498       .  S
C590        C614   1.500       .  S
C591        C712   1.482       .  S
C592        C625   1.500       .  S
O593        C606   1.277       .  A
O593       Co601   2.059       .  S
O594        C607   1.299       .  A
O594       Co602   2.110       .  S
O595        C608   1.265       .  A
O595       Co603   1.981       .  S
O596        C609   1.243       .  A
O596       Co604   1.957       .  S
O597        C609   1.260       .  A
O597       Co602   2.004       .  S
O598        C608   1.276       .  A
O598       Co601   2.021       .  S
O599        C606   1.248       .  A
O599       Co604   1.939       .  S
O600        C607   1.269       .  A
O600       Co603   1.933       .  S
Co601       O605   2.046       .  S
Co602       O605   2.028       .  S
Co603       O605   2.031       .  S
Co604       O605   2.033       .  S
C606        C681   1.481       .  S
C607        C751   1.506       .  S
C608        C768   1.475       .  S
C609        C670   1.468       .  S
C610        C611   1.396       .  A
C610        C615   1.406       .  A
C610        H617   1.084       .  S
C611        C612   1.403       .  A
C612        N619   1.430       .  S
C612        C613   1.402       .  A
C613        C614   1.411       .  A
C613        H618   1.084       .  S
C614        C615   1.422       .  A
C615        N616   1.427       .  S
N616        O620   1.261       .  A
N616        O621   1.262       .  A
N619        O623   1.262       .  A
N619        O622   1.261       .  A
C624        C884   1.404   1_554  A
C624        C629   1.407       .  A
C624        H631   1.080       .  S
C625        C883   1.406       .  A
C625        C626   1.417       .  A
C626        N633   1.418       .  S
C626        C886   1.393       .  A
C627        C885   1.397       .  A
C627        C628   1.395       .  A
C627        H632   1.084       .  S
C628        C629   1.411       .  A
C629        N630   1.424       .  S
N630        O634   1.261       .  A
N630        O635   1.260       .  A
N633        O637   1.256       .  A
N633        O636   1.262       .  A
C638        C639   1.405       .  A
C638        C643   1.404       .  A
C638        H645   1.077       .  S
C639        C640   1.418       .  A
C640        N647   1.430       .  S
C640        C641   1.393       .  A
C641        C642   1.397       .  A
C641        H646   1.085       .  S
C642        C643   1.412       .  A
C643        N903   1.428   1_554  S
N644        C902   1.428       .  S
N644        O648   1.262       .  A
N644        O649   1.262       .  A
N647        O651   1.262       .  A
N647        O650   1.262       .  A
C652        C653   1.396       .  A
C652        C657   1.406   1_554  A
C652        H918   1.084   1_554  S
C653        C654   1.408       .  A
C654        N661   1.430       .  S
C654        C655   1.403       .  A
C655        C656   1.408       .  A
C655        H660   1.084       .  S
C656        C657   1.422   1_554  A
C657        N917   1.428       .  S
N658        C916   1.428       .  S
N658        O662   1.262       .  A
N658        O663   1.262       .  A
H659        C911   1.084       .  S
N661        O665   1.261       .  A
N661        O664   1.262       .  A
C666        C667   1.395       .  A
C666        C671   1.392       .  A
C666        H673   1.085       .  S
C667        C668   1.404       .  A
C668        N675   1.425       .  S
C668        C669   1.393       .  A
C669        C670   1.402       .  A
C669        H674   1.084       .  S
C670        C671   1.417       .  A
C671        N672   1.429       .  S
N672        O676   1.262       .  A
N672        O677   1.262       .  A
N675        O679   1.261       .  A
N675        O678   1.261       .  A
C680        C940   1.400   1_554  A
C680        C685   1.410       .  A
C680        H687   1.084       .  S
C681        C939   1.397       .  A
C681        C682   1.416       .  A
C682        N689   1.428       .  S
C682        C683   1.397       .  A
C683        C943   1.398       .  A
C683        H688   1.084       .  S
C684        C942   1.397       .  A
C684        C685   1.419       .  A
C685        N686   1.428       .  S
N686        O690   1.262       .  A
N686        O691   1.260       .  A
N689        O693   1.261       .  A
N689        O692   1.262       .  A
C694        C954   1.401       .  A
C694        C699   1.405       .  A
C694        H701   1.084       .  S
C695        C953   1.401       .  A
C695        C696   1.416   1_556  A
C696        N703   1.428       .  S
C696        C697   1.402   1_554  A
C697        C698   1.402       .  A
C697        H702   1.084   1_556  S
C698        C958   1.418       .  A
C698        C819   1.505       .  S
C699        N700   1.428       .  S
C699        C957   1.417       .  A
N700        O704   1.262   1_565  A
N700        O705   1.262       .  A
N703        O707   1.262       .  A
N703        O706   1.262       .  A
C708        C709   1.408       .  A
C708        C713   1.405       .  A
C708        H715   1.084       .  S
C709        C710   1.407       .  A
C710        N717   1.425       .  S
C710        C711   1.399       .  A
C711        C712   1.404       .  A
C711        H716   1.085       .  S
C712        C713   1.411       .  A
C713        N714   1.428       .  S
N714        O718   1.262       .  A
N714        O719   1.262       .  A
N717        O721   1.260   1_554  A
N717        O720   1.261       .  A
C722        C723   1.386       .  A
C722        C727   1.397       .  A
C722        H729   1.083       .  S
C723        N785   1.441       .  S
C723        C724   1.415       .  A
C724        N731   1.425       .  S
C724        C725   1.406       .  A
C725        C726   1.402       .  A
C725        H730   1.084       .  S
C726        C727   1.422       .  A
C727        N728   1.417       .  S
N728        O732   1.263       .  A
N728        O733   1.262       .  A
N731        O735   1.262       .  A
N731        O993   1.262       .  A
O734        N990   1.262       .  A
C736        C737   1.392       .  A
C736        C741   1.392       .  A
C736        H743   1.084       .  S
C737        C997   1.407       .  A
C738        N745   1.429       .  S
C738        C996   1.407       .  A
C738        C739   1.411       .  A
C739        C999   1.409       .  A
C739        H744   1.083       .  S
C740        C998   1.408       .  A
C740        C741   1.416       .  A
C740        C779   1.482       .  S
C741        N742   1.427       .  S
N742        O746   1.262       .  A
N742        O747   1.262       .  A
N745        O749   1.262       .  A
N745        O748   1.262       .  A
C750        C751   1.402       .  A
C750        C755   1.401       .  A
C750        H757   1.084       .  S
C751        C752   1.422       .  A
C752        N759   1.426       .  S
C752        C753   1.414       .  A
C753        C754   1.403       .  A
C753        H758   1.083       .  S
C754        C755   1.421       .  A
C755        N756   1.428       .  S
N756        O760   1.262       .  A
N756       O1020   1.261       .  A
N759        O763   1.262       .  A
N759        O762   1.262       .  A
O761       N1015   1.262       .  A
C764        C765   1.398       .  A
C764        C769   1.397       .  A
C764        H771   1.084       .  S
C765        C766   1.406       .  A
C766        N773   1.428       .  S
C766        C767   1.400       .  A
C767        C768   1.405       .  A
C767        H772   1.083       .  S
C768        C769   1.413       .  A
C769        N770   1.427       .  S
N770        O774   1.262       .  A
N770        O775   1.261       .  A
N773       O1036   1.260       .  A
N773        O776   1.262       .  A
O777       N1032   1.259       .  A
N778        C779   1.366       .  A
N778       C1013   1.459       .  S
C780        C781   1.368       .  A
C780        H783   1.083       .  S
C781        C782   1.377       .  A
C781        H784   1.082       .  S
C782       C1024   1.478       .  S
N785        C789   1.360       .  A
N785        C786   1.358       .  A
C786        C787   1.383       .  A
C786        C954   1.485       .  S
C787        C788   1.373       .  A
C787        H790   1.083       .  S
C788        C789   1.380       .  A
C788        H791   1.082       .  S
C789        C968   1.487       .  S
N792        C796   1.356       .  A
N792        C793   1.361       .  A
N792        C943   1.447       .  S
C793        C794   1.385       .  A
C793        C912   1.476       .  S
C794        C795   1.369       .  A
C794        H797   1.083       .  S
C795        C796   1.376       .  A
C795        H798   1.082       .  S
C796        C926   1.458       .  S
N799        C804   1.354       .  A
N799        C803   1.355       .  A
N800        C808   1.351       .  A
N801        C805   1.352   1_545  A
N801        H832   1.039   1_554  S
N802        C809   1.351       .  A
N802        C810   1.357       .  A
C803        C811   1.385       .  A
C804        C820   1.422       .  A
C804        C812   1.390       .  A
C805        C813   1.388       .  A
C805        C822   1.414       .  A
C806        C821   1.416       .  A
C807        C819   1.421       .  A
C807        C815   1.386       .  A
C808        C822   1.416   1_556  A
C808        C816   1.387       .  A
C809        C817   1.385       .  A
C810        C818   1.385       .  A
C810        C821   1.422       .  A
C811        C812   1.376       .  A
C811        H823   1.082   1_545  S
C812        H824   1.082       .  S
C813        C814   1.376   1_565  A
C813        H825   1.083       .  S
C814        H826   1.082       .  S
C815        H827   1.082       .  S
C816        H828   1.082       .  S
C817        C818   1.377       .  A
C817        H829   1.079       .  S
C818        H830   1.081       .  S
C820        C901   1.491       .  S
C821        C915   1.507       .  S
C822        C996   1.487       .  S
N833        C837   1.363       .  A
N833        C834   1.364       .  A
N833        C887   1.444       .  S
C834        C835   1.385       .  A
C834        C898   1.485       .  S
C835        C836   1.365       .  A
C835        H838   1.081       .  S
C836        C837   1.376       .  A
C836        H839   1.082       .  S
C837        C870   1.474       .  S
O840        C848   1.255       .  A
O840       Co860   1.971       .  S
O841        C849   1.272       .  A
O841       Co861   1.984       .  S
O842        C850   1.300       .  A
O842       Co862   2.121       .  S
O843        C851   1.279       .  A
O843       Co863   2.049       .  S
O844        C850   1.264       .  A
O844       Co861   1.881       .  S
O845        C851   1.256       .  A
O845       Co860   1.957       .  S
O846        C849   1.281       .  A
O846       Co863   2.031       .  S
O847        C848   1.273       .  A
O847       Co862   2.029       .  S
C848        C985   1.495       .  S
C849        C873   1.502       .  S
C850        C971   1.479       .  S
C851        C884   1.495       .  S
O852        C865   1.277       .  A
O852       Co860   2.064       .  S
O853        C866   1.299       .  A
O853       Co861   2.112       .  S
O854        C867   1.264       .  A
O854       Co862   1.981       .  S
O855        C868   1.243       .  A
O855       Co863   1.954       .  S
O856        C868   1.259       .  A
O856       Co861   2.006       .  S
O857        C867   1.276       .  A
O857       Co860   2.022       .  S
O858        C865   1.247       .  A
O858       Co863   1.940       .  S
O859        C866   1.268       .  A
O859       Co862   1.927       .  S
Co860       O864   2.046       .  S
Co861       O864   2.027       .  S
Co862       O864   2.027       .  S
Co863       O864   2.026       .  S
C865        C940   1.484       .  S
C866       C1010   1.503       .  S
C867       C1027   1.475       .  S
C868        C929   1.467       .  S
C869        C870   1.397       .  A
C869        C874   1.406       .  A
C869        H876   1.084       .  S
C870        C871   1.401       .  A
C871        N878   1.430       .  S
C871        C872   1.402       .  A
C872        C873   1.413       .  A
C872        H877   1.083       .  S
C873        C874   1.423       .  A
C874        N875   1.427       .  S
N875        O879   1.262       .  A
N875        O880   1.262       .  A
N878        O882   1.262       .  A
N878        O881   1.261       .  A
C883        C888   1.412       .  A
C883        H890   1.080       .  S
C884        C885   1.417   1_556  A
C885        N892   1.423   1_554  S
C886        C887   1.390       .  A
C886        H891   1.084       .  S
C887        C888   1.414       .  A
C888        N889   1.425       .  S
N889        O893   1.262       .  A
N889        O894   1.261       .  A
N892        O896   1.257       .  A
N892        O895   1.262       .  A
C897        C898   1.405       .  A
C897        C902   1.404       .  A
C897        H904   1.079       .  S
C898        C899   1.414       .  A
C899        N906   1.430       .  S
C899        C900   1.391       .  A
C900        C901   1.398       .  A
C900        H905   1.085       .  S
C901        C902   1.415       .  A
N903        O907   1.262       .  A
N903        O908   1.262       .  A
N906        O910   1.262       .  A
N906        O909   1.262       .  A
C911        C912   1.396       .  A
C911        C916   1.404       .  A
C912        C913   1.408       .  A
C913        N920   1.429       .  S
C913        C914   1.403       .  A
C914        C915   1.408       .  A
C914        H919   1.083       .  S
C915        C916   1.421       .  A
N917        O921   1.262       .  A
N917        O922   1.262       .  A
N920        O924   1.261       .  A
N920        O923   1.262       .  A
C925        C926   1.395       .  A
C925        C930   1.392       .  A
C925        H932   1.085       .  S
C926        C927   1.405       .  A
C927        N934   1.427       .  S
C927        C928   1.394       .  A
C928        C929   1.403       .  A
C928        H933   1.084       .  S
C929        C930   1.416       .  A
C930        N931   1.430       .  S
N931        O935   1.262       .  A
N931        O936   1.262       .  A
N934        O938   1.262       .  A
N934        O937   1.261       .  A
C939        C944   1.408       .  A
C939        H946   1.084       .  S
C940        C941   1.417       .  A
C941        N948   1.427       .  S
C941        C942   1.398   1_556  A
C942        H947   1.084       .  S
C943        C944   1.420       .  A
C944        N945   1.427       .  S
N945        O949   1.262       .  A
N945        O950   1.260       .  A
N948        O952   1.261       .  A
N948        O951   1.262       .  A
C953        C958   1.406       .  A
C953        H960   1.084       .  S
C954        C955   1.417       .  A
C955        N962   1.428       .  S
C955        C956   1.403       .  A
C956        C957   1.402       .  A
C956        H961   1.084       .  S
C958        N959   1.428       .  S
N959        O963   1.262   1_565  A
N959        O964   1.262       .  A
N962        O966   1.262       .  A
N962        O965   1.262       .  A
C967        C968   1.409       .  A
C967        C972   1.405       .  A
C967        H974   1.084       .  S
C968        C969   1.405       .  A
C969        N976   1.424       .  S
C969        C970   1.398       .  A
C970        C971   1.404       .  A
C970        H975   1.085       .  S
C971        C972   1.410       .  A
C972        N973   1.428       .  S
N973        O977   1.262       .  A
N973        O978   1.262       .  A
N976        O980   1.260       .  A
N976        O979   1.261       .  A
C981        C982   1.388       .  A
C981        C986   1.398       .  A
C981        H988   1.084   1_556  S
C982        C983   1.416       .  A
C983        N990   1.425       .  S
C983        C984   1.406       .  A
C984        C985   1.402       .  A
C984        H989   1.084       .  S
C985        C986   1.422       .  A
C986        N987   1.421       .  S
N987        O991   1.262   1_556  A
N987        O992   1.260       .  A
N990        O994   1.262       .  A
C995        C996   1.391   1_556  A
C995       C1000   1.393       .  A
C995       H1002   1.084       .  S
C997       N1004   1.429       .  S
C997        C998   1.409       .  A
C998       H1003   1.083       .  S
C999       C1000   1.417   1_554  A
C1000      N1001   1.425       .  S
N1001      O1005   1.261       .  A
N1001      O1006   1.262       .  A
N1004      O1008   1.261       .  A
N1004      O1007   1.262       .  A
C1009      C1010   1.401       .  A
C1009      C1014   1.400       .  A
C1009      H1016   1.084       .  S
C1010      C1011   1.421       .  A
C1011      N1018   1.426       .  S
C1011      C1012   1.410       .  A
C1012      C1013   1.404       .  A
C1012      H1017   1.081       .  S
C1013      C1014   1.422       .  A
C1014      N1015   1.428       .  S
N1015      O1019   1.262       .  A
N1018      O1022   1.262       .  A
N1018      O1021   1.262       .  A
C1023      C1024   1.399       .  A
C1023      C1028   1.398       .  A
C1023      H1030   1.084       .  S
C1024      C1025   1.407       .  A
C1025      N1032   1.426       .  S
C1025      C1026   1.399       .  A
C1026      C1027   1.403       .  A
C1026      H1031   1.083       .  S
C1027      C1028   1.413       .  A
C1028      N1029   1.428       .  S
N1029      O1033   1.262       .  A
N1029      O1034   1.261       .  A
N1032      O1035   1.262       .  A
