geometry optimzed in LAMMPS
_audit_creation_date              2020-11-30 
_audit_creation_method            'lammps2cif' 
_symmetry_space_group_name_H-M    'P1' 
_symmetry_Int_Tables_number       1 
_symmetry_cell_setting            triclinic 
loop_ 
_symmetry_equiv_pos_as_xyz 
  x,y,z 
_cell_length_a                    63.9405919 
_cell_length_b                    63.81651816484825 
_cell_length_c                    63.95487951686541 
_cell_angle_alpha                 90.09323704819789 
_cell_angle_beta                  89.9654422774605 
_cell_angle_gamma                 89.96807763961559 
loop_ 
_atom_site_label 
_atom_site_type_symbol 
_atom_site_fract_x 
_atom_site_fract_y 
_atom_site_fract_z 
_atom_site_charge 
N1          N  0.75043424  0.91156905  0.40233760    -0.03300
C2          C  0.74026661  0.91244803  0.38375310    -0.00700
C3          C  0.74411363  0.89452257  0.37221894    -0.23600
C4          C  0.75676092  0.88196888  0.38429790    -0.23800
C5          C  0.76040888  0.89281883  0.40263364    -0.00800
H6          H  0.73804710  0.89083427  0.35685488     0.13000
H7          H  0.76256105  0.86656060  0.38022862     0.13000
N8          N  0.75457433  0.90679504  0.58861753    -0.03300
C9          C  0.74344920  0.90651217  0.60659059    -0.00700
C10         C  0.74831424  0.88887577  0.61815229    -0.23600
C11         C  0.76287870  0.87782337  0.60669813    -0.23800
C12         C  0.76636347  0.88922865  0.58867255    -0.00800
H13         H  0.74198168  0.88456889  0.63323998     0.13000
H14         H  0.76976205  0.86289055  0.61080173     0.13000
N15         N  0.74415514  0.09270019  0.40639256    -0.03300
C16         C  0.75554926  0.11057850  0.40551872    -0.00700
C17         C  0.75037450  0.12202850  0.38792657    -0.23600
C18         C  0.73521321  0.11080415  0.37760429    -0.23800
C19         C  0.73161884  0.09301824  0.38936339    -0.00800
H20         H  0.75677784  0.13699936  0.38325052     0.13000
H21         H  0.72790335  0.11493455  0.36291815     0.13000
N22         N  0.74775890  0.09120909  0.58938941    -0.03300
C23         C  0.73914971  0.08936471  0.60858611    -0.00700
C24         C  0.74162815  0.10768734  0.61984237    -0.23600
C25         C  0.75237384  0.12129230  0.60708429    -0.23800
C26         C  0.75611805  0.11066526  0.58861105    -0.00800
H27         H  0.73617991  0.11080375  0.63556635     0.13000
H28         H  0.75714239  0.13710329  0.61092085     0.13000
O29         O  0.73462924  0.97747261  0.51933800    -0.74200
O30         O  0.73056033  0.02005426  0.47714034    -0.74300
O31         O  0.73277416  0.97747179  0.47705604    -0.74300
O32         O  0.73224703  0.02002902  0.51938956    -0.74400
O33         O  0.76709540  0.02122294  0.51851992    -0.74300
O34         O  0.76753375  0.97976833  0.47501227    -0.74300
O35         O  0.76528330  0.02219145  0.47616011    -0.74300
O36         O  0.76936596  0.97880107  0.51754519    -0.74300
Ni37       Ni  0.73132761  0.99866876  0.49828287     1.25400
Ni38       Ni  0.76856186  0.00054468  0.49675398     1.25400
C39         C  0.75263756  0.97106102  0.52544982     0.87900
C40         C  0.74727485  0.02841358  0.46985491     0.87900
C41         C  0.75018802  0.97175261  0.46897332     0.87900
C42         C  0.74959770  0.02754515  0.52599486     0.88100
N43         N  0.91010107  0.75118175  0.40223475    -0.03300
C44         C  0.90986250  0.73922174  0.38477491    -0.00700
C45         C  0.89197536  0.74314703  0.37330645    -0.23600
C46         C  0.88095979  0.75830745  0.38411767    -0.23800
C47         C  0.89259146  0.76301076  0.40171827    -0.00800
H48         H  0.88754562  0.73595513  0.35863088     0.13000
H49         H  0.86591838  0.76480981  0.37987687     0.13000
N50         N  0.91500640  0.75400454  0.58351071    -0.03300
C51         C  0.91398695  0.74230010  0.60115721    -0.00700
C52         C  0.89605066  0.74704653  0.61224623    -0.23600
C53         C  0.88572871  0.76230402  0.60104900    -0.23800
C54         C  0.89776438  0.76636234  0.58355945    -0.00800
H55         H  0.89112631  0.74029892  0.62695833     0.13000
H56         H  0.87076730  0.76923893  0.60491234     0.13000
N57         N  0.09789542  0.74371706  0.39902151    -0.03300
C58         C  0.09719979  0.73201985  0.38137379    -0.00700
C59         C  0.11580827  0.73362049  0.37052480    -0.23600
C60         C  0.12844457  0.74677501  0.38204554    -0.23800
C61         C  0.11704587  0.75275394  0.39945864    -0.00800
H62         H  0.11980737  0.72592740  0.35597107     0.13000
H63         H  0.14442522  0.75103354  0.37845175     0.13000
N64         N  0.09673952  0.74161005  0.58282501    -0.03300
C65         C  0.09486905  0.73127277  0.60120968    -0.00700
C66         C  0.11191904  0.73525055  0.61387685    -0.23600
C67         C  0.12463875  0.74878769  0.60299452    -0.23800
C68         C  0.11479810  0.75254822  0.58414703    -0.00800
H69         H  0.11453722  0.72936137  0.62951669     0.13000
H70         H  0.13946058  0.75509045  0.60819554     0.13000
O71         O  0.98424855  0.73422789  0.51229525    -0.74200
O72         O  0.02500127  0.73173782  0.46823372    -0.74300
O73         O  0.02653794  0.73155660  0.51062911    -0.74300
O74         O  0.98265353  0.73411176  0.46993423    -0.74400
O75         O  0.98478546  0.76888538  0.46960325    -0.74300
O76         O  0.02825579  0.76633889  0.51094974    -0.74300
O77         O  0.02706786  0.76650832  0.46853113    -0.74300
O78         O  0.98598995  0.76903359  0.51198041    -0.74300
Ni79       Ni  0.00453436  0.73167370  0.49025551     1.25400
Ni80       Ni  0.00660599  0.76891767  0.49025088     1.25400
C81         C  0.97839754  0.75207844  0.51948876     0.87900
C82         C  0.03286654  0.74879864  0.46113058     0.87900
C83         C  0.03458102  0.74852460  0.51772881     0.87900
C84         C  0.97644407  0.75187677  0.46297059     0.88100
N85         N  0.25738317  0.89939212  0.40313386    -0.03300
C86         C  0.27011318  0.89986739  0.38625629    -0.00700
C87         C  0.26933296  0.88100988  0.37563925    -0.23600
C88         C  0.25568726  0.86840241  0.38653722    -0.23800
C89         C  0.24859752  0.88009883  0.40332221    -0.00800
H90         H  0.27765324  0.87694148  0.36146196     0.13000
H91         H  0.25178522  0.85230421  0.38291414     0.13000
N92         N  0.25350408  0.89899442  0.58925968    -0.03300
C93         C  0.26122631  0.90093158  0.60887739    -0.00700
C94         C  0.25753241  0.88297148  0.62029865    -0.23600
C95         C  0.24720264  0.86937996  0.60720939    -0.23800
C96         C  0.24486941  0.87961582  0.58831151    -0.00800
H97         H  0.26196798  0.88006756  0.63636265     0.13000
H98         H  0.24172400  0.85383141  0.61112371     0.13000
N99         N  0.25339402  0.08546953  0.40824849    -0.03300
C100        C  0.24303172  0.10393726  0.40961174    -0.00700
C101        C  0.24731903  0.11630341  0.39243257    -0.23600
C102        C  0.26089145  0.10504381  0.38005128    -0.23800
C103        C  0.26433316  0.08624257  0.39015997    -0.00800
H104        H  0.24110251  0.13173540  0.38919771     0.13000
H105        H  0.26701337  0.10972472  0.36498892     0.13000
N106        N  0.25532833  0.08459883  0.58627394    -0.03300
C107        C  0.24714877  0.10408776  0.58447575    -0.00700
C108        C  0.25428639  0.11687520  0.60041703    -0.23600
C109        C  0.26749749  0.10488311  0.61238921    -0.23800
C110        C  0.26805366  0.08530100  0.60317192    -0.00800
H111        H  0.25057531  0.13325257  0.60281343     0.13000
H112        H  0.27590884  0.10990101  0.62619305     0.13000
O113        O  0.27108259  0.01138441  0.47638374    -0.74200
O114        O  0.26963915  0.96844149  0.51824755    -0.74300
O115        O  0.27120113  0.96882864  0.47598924    -0.74300
O116        O  0.26960346  0.01103965  0.51859223    -0.74400
O117        O  0.23483296  0.01132958  0.51738481    -0.74300
O118        O  0.23640821  0.96861837  0.47480579    -0.74300
O119        O  0.23477612  0.96880128  0.51744712    -0.74300
O120        O  0.23634291  0.01125075  0.47495069    -0.74300
Ni121      Ni  0.27158986  0.98990696  0.49734746     1.25400
Ni122      Ni  0.23433826  0.98996675  0.49608662     1.25400
C123        C  0.25398268  0.01858844  0.46882187     0.87900
C124        C  0.25197676  0.96170269  0.52489194     0.87900
C125        C  0.25412209  0.96163801  0.46837990     0.87900
C126        C  0.25203056  0.01835214  0.52494993     0.88100
N127        N  0.40496115  0.91213463  0.23229925    -0.03300
C128        C  0.40470829  0.89507071  0.21961886    -0.00700
C129        C  0.38646853  0.88379354  0.22245241    -0.23600
C130        C  0.37504523  0.89426058  0.23736533    -0.23800
C131        C  0.38683370  0.91140236  0.24328124    -0.00800
H132        H  0.38245671  0.86889611  0.21542395     0.13000
H133        H  0.36001752  0.88961707  0.24361679     0.13000
N134        N  0.58676520  0.91053554  0.24632232    -0.03300
C135        C  0.58609905  0.89165574  0.23664537    -0.00700
C136        C  0.60332697  0.87975576  0.24197229    -0.23600
C137        C  0.61512878  0.89179081  0.25536707    -0.23800
C138        C  0.60474997  0.91067205  0.25756203    -0.00800
H139        H  0.60680365  0.86397271  0.23682125     0.13000
H140        H  0.62975653  0.88733303  0.26261181     0.13000
N141        N  0.40105150  0.09238579  0.24187379    -0.03300
C142        C  0.40160396  0.11124675  0.23217626    -0.00700
C143        C  0.38268087  0.12146943  0.23430874    -0.23600
C144        C  0.36995072  0.10842001  0.24575717    -0.23800
C145        C  0.38168398  0.09083856  0.25040198    -0.00800
H146        H  0.37864680  0.13678977  0.22830495     0.13000
H147        H  0.35400397  0.11155275  0.25050898     0.13000
N148        N  0.58717266  0.09810585  0.25282391    -0.03300
C149        C  0.58861489  0.11624353  0.24201481    -0.00700
C150        C  0.60705813  0.12650037  0.24669779    -0.23600
C151        C  0.61750565  0.11405029  0.26079545    -0.23800
C152        C  0.60500814  0.09670996  0.26414970    -0.00800
H153        H  0.61225052  0.14145587  0.24067474     0.13000
H154        H  0.63272426  0.11708697  0.26754730     0.13000
O155        O  0.47455198  0.02510073  0.25998393    -0.74200
O156        O  0.51731213  0.98299345  0.25998590    -0.74300
O157        O  0.51691539  0.02551998  0.26158636    -0.74300
O158        O  0.47502035  0.98253323  0.25835053    -0.74400
O159        O  0.47646284  0.98368123  0.22365208    -0.74300
O160        O  0.51831585  0.02684935  0.22685567    -0.74300
O161        O  0.51887208  0.98419454  0.22526895    -0.74300
O162        O  0.47570808  0.02612122  0.22512666    -0.74300
Ni163      Ni  0.49591172  0.00400669  0.26118845     1.25400
Ni164      Ni  0.49740923  0.00528371  0.22398403     1.25400
C165        C  0.46803260  0.03243826  0.24254235     0.87900
C166        C  0.52509580  0.97646164  0.24267972     0.87900
C167        C  0.52461176  0.03331715  0.24479140     0.87900
C168        C  0.46878439  0.97590298  0.24048225     0.88100
N169        N  0.40808494  0.74315524  0.90401632    -0.03300
C170        C  0.40991611  0.75157233  0.88465028    -0.00700
C171        C  0.39116926  0.74985121  0.87398172    -0.23600
C172        C  0.37734441  0.74014458  0.88725746    -0.23800
C173        C  0.38807884  0.73631125  0.90560341    -0.00800
H174        H  0.38776968  0.75545986  0.85838899     0.13000
H175        H  0.36120234  0.73631161  0.88391217     0.13000
N176        N  0.59231594  0.73878654  0.90586017    -0.03300
C177        C  0.59322405  0.74801230  0.88681490    -0.00700
C178        C  0.61165478  0.74263900  0.87678974    -0.23600
C179        C  0.62220635  0.72929004  0.88993537    -0.23800
C180        C  0.60992629  0.72716401  0.90755655    -0.00800
H181        H  0.61682111  0.74776058  0.86151731     0.13000
H182        H  0.63726279  0.72207719  0.88706935     0.13000
N183        N  0.40732141  0.74612382  0.08917428    -0.03300
C184        C  0.40701458  0.75882493  0.10613236    -0.00700
C185        C  0.38809227  0.75754387  0.11642055    -0.23600
C186        C  0.37614398  0.74351904  0.10531800    -0.23800
C187        C  0.38829723  0.73676022  0.08871018    -0.00800
H188        H  0.38356229  0.76578526  0.13051551     0.13000
H189        H  0.36019575  0.73901927  0.10876434     0.13000
N190        N  0.58709795  0.73718826  0.09223816    -0.03300
C191        C  0.58571046  0.74581034  0.11153547    -0.00700
C192        C  0.60364189  0.74176419  0.12292704    -0.23600
C193        C  0.61662396  0.73039035  0.11009288    -0.23800
C194        C  0.60605384  0.72784399  0.09145606    -0.00800
H195        H  0.60715892  0.74709649  0.13860687     0.13000
H196        H  0.63217648  0.72483105  0.11380172     0.13000
O197        O  0.47828933  0.76063310  0.01742907    -0.74200
O198        O  0.52145500  0.75921947  0.97591340    -0.74300
O199        O  0.47893432  0.76059631  0.97503495    -0.74300
O200        O  0.52060970  0.75900954  0.01830750    -0.74400
O201        O  0.51879983  0.72415947  0.01873429    -0.74300
O202        O  0.47818798  0.72569990  0.97443339    -0.74300
O203        O  0.52057849  0.72433131  0.97600183    -0.74300
O204        O  0.47642773  0.72584877  0.01704640    -0.74300
Ni205      Ni  0.49986678  0.76107397  0.99665323     1.25400
Ni206      Ni  0.49847151  0.72375490  0.99653713     1.25400
C207        C  0.47015501  0.74360142  0.02417607     0.87900
C208        C  0.52824613  0.74159485  0.96912023     0.87900
C209        C  0.47163613  0.74340459  0.96763095     0.87900
C210        C  0.52645528  0.74133460  0.02580396     0.88100
N211        N  0.40822531  0.90008753  0.74954630    -0.03300
C212        C  0.41016388  0.88040283  0.75722999    -0.00700
C213        C  0.39169552  0.86944266  0.75462552    -0.23600
C214        C  0.37801474  0.88273176  0.74467842    -0.23800
C215        C  0.38858914  0.90134626  0.74159670    -0.00800
H216        H  0.38840793  0.85361040  0.75968388     0.13000
H217        H  0.36215082  0.87915012  0.73999354     0.13000
N218        N  0.59432131  0.90267910  0.74804248    -0.03300
C219        C  0.59286235  0.88261844  0.75473105    -0.00700
C220        C  0.61128193  0.87194695  0.75091564    -0.23600
C221        C  0.62456129  0.88593509  0.74152410    -0.23800
C222        C  0.61390482  0.90475046  0.74024277    -0.00800
H223        H  0.61475443  0.85580070  0.75473057     0.13000
H224        H  0.64012932  0.88256053  0.73579460     0.13000
N225        N  0.40773859  0.08395354  0.75147223    -0.03300
C226        C  0.40756894  0.10101021  0.76411050    -0.00700
C227        C  0.38922117  0.11217649  0.76143640    -0.23600
C228        C  0.37764650  0.10147524  0.74678010    -0.23800
C229        C  0.38943662  0.08430337  0.74090309    -0.00800
H230        H  0.38475491  0.12654532  0.76926358     0.13000
H231        H  0.36205219  0.10538335  0.74149462     0.13000
N232        N  0.59182863  0.08417887  0.75166476    -0.03300
C233        C  0.59020979  0.10364037  0.76016794    -0.00700
C234        C  0.60922586  0.11391301  0.75899061    -0.23600
C235        C  0.62290544  0.10053125  0.74921828    -0.23800
C236        C  0.61190367  0.08240470  0.74492268    -0.00800
H237        H  0.61281484  0.12945366  0.76475274     0.13000
H238        H  0.63907197  0.10376153  0.74538365     0.13000
O239        O  0.47845054  0.01337764  0.76536629    -0.74200
O240        O  0.52175954  0.97172161  0.76620077    -0.74300
O241        O  0.52094133  0.01404681  0.76564031    -0.74300
O242        O  0.47911140  0.97087082  0.76608270    -0.74400
O243        O  0.47937577  0.97019415  0.73122148    -0.74300
O244        O  0.52087259  0.01386631  0.73076618    -0.74300
O245        O  0.52182936  0.97113703  0.73134505    -0.74300
O246        O  0.47849995  0.01284073  0.73058228    -0.74300
Ni247      Ni  0.50003236  0.99251399  0.76704785     1.25400
Ni248      Ni  0.50014678  0.99197813  0.72973677     1.25400
C249        C  0.47138703  0.02012991  0.74785395     0.87900
C250        C  0.52907989  0.96471260  0.74889127     0.87900
C251        C  0.52774942  0.02109534  0.74817259     0.87900
C252        C  0.47247814  0.96328758  0.74874137     0.88100
N253        N  0.40271722  0.24489693  0.90328777    -0.03300
C254        C  0.38348531  0.25371617  0.90345174    -0.00700
C255        C  0.37172154  0.24640605  0.88685825    -0.23600
C256        C  0.38418194  0.23236880  0.87619953    -0.23800
C257        C  0.40301152  0.23165064  0.88677461    -0.00800
H258        H  0.35566981  0.25039040  0.88327032     0.13000
H259        H  0.37999417  0.22365196  0.86229278     0.13000
N260        N  0.58676255  0.25560342  0.90001618    -0.03300
C261        C  0.60455648  0.26714176  0.90038883    -0.00700
C262        C  0.61581834  0.26427321  0.88217188    -0.23600
C263        C  0.60459902  0.25040115  0.87012190    -0.23800
C264        C  0.58679111  0.24546253  0.88132940    -0.00800
H265        H  0.63085898  0.27103633  0.87835824     0.13000
H266        H  0.60891917  0.24456179  0.85482137     0.13000
N267        N  0.40245557  0.24057982  0.08281949    -0.03300
C268        C  0.38253347  0.24738767  0.08069709    -0.00700
C269        C  0.37040561  0.24035723  0.09715769    -0.23600
C270        C  0.38338345  0.22869480  0.10979886    -0.23800
C271        C  0.40285510  0.22896698  0.10046058    -0.00800
H272        H  0.35397845  0.24351850  0.09975208     0.13000
H273        H  0.37914303  0.22099050  0.12425082     0.13000
N274        N  0.58840910  0.25000187  0.08574386    -0.03300
C275        C  0.58844014  0.23890699  0.10385637    -0.00700
C276        C  0.60656910  0.24259758  0.11498709    -0.23600
C277        C  0.61811550  0.25658470  0.10347744    -0.23800
C278        C  0.60664030  0.26087923  0.08569031    -0.00800
H279        H  0.61070687  0.23615601  0.13007266     0.13000
H280        H  0.63336613  0.26273931  0.10748298     0.13000
O281        O  0.47652863  0.23085713  0.01428915    -0.74200
O282        O  0.51804729  0.23565466  0.97141605    -0.74300
O283        O  0.51891155  0.23429435  0.01372895    -0.74300
O284        O  0.47568701  0.23230873  0.97222518    -0.74400
O285        O  0.47300282  0.26708556  0.97334553    -0.74300
O286        O  0.51631719  0.26899808  0.01510313    -0.74300
O287        O  0.51548876  0.27034404  0.97259295    -0.74300
O288        O  0.47387927  0.26564748  0.01578212    -0.74300
Ni289      Ni  0.49742644  0.23208284  0.99287371     1.25400
Ni290      Ni  0.49459240  0.26927373  0.99424719     1.25400
C291        C  0.46808093  0.24740809  0.02186769     0.87900
C292        C  0.52373573  0.25374258  0.96483913     0.87900
C293        C  0.52484693  0.25192450  0.02134801     0.87900
C294        C  0.46696788  0.24931666  0.96612901     0.88100
N295        N  0.24701310  0.40636971  0.90253124    -0.03300
C296        C  0.23552800  0.40522589  0.88479541    -0.00700
C297        C  0.24070753  0.38739608  0.87362679    -0.23600
C298        C  0.25583507  0.37714434  0.88506338    -0.23800
C299        C  0.25948320  0.38924079  0.90263565    -0.00800
H300        H  0.23454361  0.38262498  0.85860241     0.13000
H301        H  0.26306696  0.36229648  0.88120538     0.13000
N302        N  0.24189643  0.59437428  0.90741357    -0.03300
C303        C  0.23072918  0.59308280  0.88950995    -0.00700
C304        C  0.23108902  0.61194906  0.87899248    -0.23600
C305        C  0.24291498  0.62543042  0.89095983    -0.23800
C306        C  0.24943495  0.61420289  0.90825081    -0.00800
H307        H  0.22364590  0.61546935  0.86421833     0.13000
H308        H  0.24655405  0.64158470  0.88735414     0.13000
N309        N  0.24844320  0.40669514  0.08641741    -0.03300
C310        C  0.25887780  0.38829098  0.08684437    -0.00700
C311        C  0.25431200  0.37735216  0.10489157    -0.23600
C312        C  0.24057844  0.38960747  0.11610079    -0.23800
C313        C  0.23725876  0.40741921  0.10432875    -0.00800
H314        H  0.25995393  0.36195411  0.10916015     0.13000
H315        H  0.23373939  0.38594966  0.13113778     0.13000
N316        N  0.24196834  0.59143638  0.08654739    -0.03300
C317        C  0.25235513  0.60986557  0.08676212    -0.00700
C318        C  0.24761500  0.62123844  0.10452147    -0.23600
C319        C  0.23380716  0.60925772  0.11582865    -0.23800
C320        C  0.23055212  0.59118826  0.10435811    -0.00800
H321        H  0.25347974  0.63658510  0.10870281     0.13000
H322        H  0.22711959  0.61313112  0.13089556     0.13000
O323        O  0.23055752  0.47783622  0.97285594    -0.74200
O324        O  0.23000535  0.51887066  0.01681491    -0.74300
O325        O  0.22932162  0.52049864  0.97465063    -0.74300
O326        O  0.23126008  0.47638482  0.01530183    -0.74400
O327        O  0.26602541  0.47763050  0.01505116    -0.74300
O328        O  0.26419609  0.52102922  0.97365046    -0.74300
O329        O  0.26475471  0.52017484  0.01616762    -0.74300
O330        O  0.26530952  0.47859798  0.97257302    -0.74300
Ni331      Ni  0.22906292  0.49832865  0.99490477     1.25400
Ni332      Ni  0.26630815  0.49938032  0.99434104     1.25400
C333        C  0.24804270  0.47132410  0.96543212     0.87900
C334        C  0.24724059  0.52651081  0.02366461     0.87900
C335        C  0.24645837  0.52802849  0.96751236     0.87900
C336        C  0.24895609  0.46989461  0.02216353     0.88100
N337        N  0.90816478  0.40684390  0.74577939    -0.03300
C338        C  0.89060372  0.40616181  0.75769956    -0.00700
C339        C  0.87973194  0.38779669  0.75403930    -0.23600
C340        C  0.89105250  0.37666674  0.73955284    -0.23800
C341        C  0.90841545  0.38863386  0.73476008    -0.00800
H342        H  0.86496072  0.38314279  0.76086483     0.13000
H343        H  0.88722405  0.36131181  0.73345975     0.13000
N344        N  0.91049000  0.59343566  0.74732937    -0.03300
C345        C  0.91012134  0.61212906  0.73722688    -0.00700
C346        C  0.89192068  0.62284325  0.74210742    -0.23600
C347        C  0.88066444  0.61023675  0.75542668    -0.23800
C348        C  0.89242323  0.59235288  0.75833414    -0.00800
H349        H  0.88725570  0.63812736  0.73647583     0.13000
H350        H  0.86533280  0.61349055  0.76182834     0.13000
N351        N  0.09447420  0.40939024  0.73915210    -0.03300
C352        C  0.11295671  0.41007945  0.74941546    -0.00700
C353        C  0.12468498  0.39242924  0.74497992    -0.23600
C354        C  0.11291094  0.38041540  0.73147660    -0.23800
C355        C  0.09436848  0.39109470  0.72835983    -0.00800
H356        H  0.13999743  0.38861042  0.75108551     0.13000
H357        H  0.11708432  0.36521261  0.72521955     0.13000
N358        N  0.09164326  0.59161396  0.74559479    -0.03300
C359        C  0.08953870  0.61102813  0.73748000    -0.00700
C360        C  0.10729711  0.62280735  0.74120720    -0.23600
C361        C  0.12084517  0.61009746  0.75206028    -0.23800
C362        C  0.11079738  0.59108522  0.75449688    -0.00800
H363        H  0.11010997  0.63882676  0.73644676     0.13000
H364        H  0.13620237  0.61431161  0.75778550     0.13000
O365        O  0.02220207  0.52070965  0.76226718    -0.74200
O366        O  0.98001323  0.47796996  0.76400359    -0.74300
O367        O  0.02252122  0.47822278  0.76232062    -0.74300
O368        O  0.97993642  0.52054071  0.76376369    -0.74400
O369        O  0.97909724  0.52089044  0.72900727    -0.74300
O370        O  0.02071475  0.47765799  0.72759612    -0.74300
O371        O  0.97820247  0.47833668  0.72930592    -0.74300
O372        O  0.02159318  0.52002384  0.72741892    -0.74300
Ni373      Ni  0.00120258  0.49934123  0.76431474     1.25400
Ni374      Ni  0.99983377  0.49920186  0.72709766     1.25400
C375        C  0.02898554  0.52725876  0.74459781     0.87900
C376        C  0.97191212  0.47116995  0.74697233     0.87900
C377        C  0.02873199  0.47094110  0.74468720     0.87900
C378        C  0.97264766  0.52796995  0.74664310     0.88100
N379        N  0.75278406  0.40398843  0.90294421    -0.03300
C380        C  0.76161081  0.40528401  0.88376171    -0.00700
C381        C  0.75842268  0.38676531  0.87291805    -0.23600
C382        C  0.74722038  0.37374074  0.88599044    -0.23800
C383        C  0.74391784  0.38483911  0.90425026    -0.00800
H384        H  0.76356121  0.38317659  0.85719068     0.13000
H385        H  0.74174837  0.35809546  0.88243206     0.13000
N386        N  0.75318695  0.58974637  0.90555341    -0.03300
C387        C  0.76295211  0.59099463  0.88684564    -0.00700
C388        C  0.75658307  0.60867464  0.87617400    -0.23600
C389        C  0.74225504  0.61865740  0.88882190    -0.23800
C390        C  0.74040846  0.60659726  0.90665085    -0.00800
H391        H  0.76124386  0.61334550  0.86059700     0.13000
H392        H  0.73396997  0.63302477  0.88535057     0.13000
N393        N  0.75757786  0.40115098  0.08376271    -0.03300
C394        C  0.77020161  0.40112228  0.10074117    -0.00700
C395        C  0.77046231  0.38161777  0.10998553    -0.23600
C396        C  0.75767063  0.36904525  0.09808500    -0.23800
C397        C  0.75007745  0.38135272  0.08196749    -0.00800
H398        H  0.77891930  0.37709032  0.12391580     0.13000
H399        H  0.75429566  0.35267083  0.10086844     0.13000
N400        N  0.75327965  0.58454334  0.08965869    -0.03300
C401        C  0.76285960  0.58270662  0.10843141    -0.00700
C402        C  0.75766261  0.59933996  0.12127911    -0.23600
C403        C  0.74450002  0.61201570  0.10993529    -0.23800
C404        C  0.74220546  0.60260392  0.09062337    -0.00800
H405        H  0.76259913  0.60174364  0.13728411     0.13000
H406        H  0.73737051  0.62648593  0.11516822     0.13000
O407        O  0.73589312  0.47378118  0.97414672    -0.74200
O408        O  0.73646737  0.51725781  0.01560803    -0.74300
O409        O  0.73625344  0.51612571  0.97313133    -0.74300
O410        O  0.73604649  0.47475008  0.01661486    -0.74400
O411        O  0.77088549  0.47453807  0.01622321    -0.74300
O412        O  0.77105038  0.51593441  0.97288304    -0.74300
O413        O  0.77124826  0.51695761  0.01532682    -0.74300
O414        O  0.77076383  0.47343546  0.97406876    -0.74300
Ni415      Ni  0.73491905  0.49550554  0.99488818     1.25400
Ni416      Ni  0.77221033  0.49523269  0.99462027     1.25400
C417        C  0.75326116  0.46641464  0.96732939     0.87900
C418        C  0.75398544  0.52426317  0.02243999     0.87900
C419        C  0.75362542  0.52281432  0.96572714     0.87900
C420        C  0.75350243  0.46766997  0.02347289     0.88100
N421        N  0.91193191  0.39579411  0.24223781    -0.03300
C422        C  0.89412697  0.39618466  0.23074483    -0.00700
C423        C  0.88314095  0.37769355  0.23338477    -0.23600
C424        C  0.89457109  0.36558485  0.24703042    -0.23800
C425        C  0.91203631  0.37715539  0.25225641    -0.00800
H426        H  0.86830280  0.37356708  0.22637659     0.13000
H427        H  0.89069104  0.34999237  0.25240194     0.13000
N428        N  0.90782429  0.58077247  0.25577016    -0.03300
C429        C  0.90725334  0.59875346  0.26701995    -0.00700
C430        C  0.88946585  0.61012390  0.26235556    -0.23600
C431        C  0.87858983  0.59866836  0.24771945    -0.23800
C432        C  0.89023716  0.58083049  0.24399281    -0.00800
H433        H  0.88531441  0.62545904  0.26830295     0.13000
H434        H  0.86387300  0.60289475  0.24051910     0.13000
N435        N  0.09252918  0.39780127  0.24074581    -0.03300
C436        C  0.09111667  0.37759730  0.24689983    -0.00700
C437        C  0.10780326  0.36610222  0.23932807    -0.23600
C438        C  0.11993137  0.37978401  0.22802425    -0.23800
C439        C  0.11018071  0.39911777  0.22911462    -0.00800
H440        H  0.11086206  0.34961938  0.24184718     0.13000
H441        H  0.13425907  0.37603296  0.21981063     0.13000
N442        N  0.09114964  0.58416298  0.25077895    -0.03300
C443        C  0.09095219  0.60126622  0.26325959    -0.00700
C444        C  0.10855563  0.61332337  0.25980034    -0.23600
C445        C  0.12002305  0.60315801  0.24462327    -0.23800
C446        C  0.10895739  0.58528018  0.23938014    -0.00800
H447        H  0.11238017  0.62811795  0.26714851     0.13000
H448        H  0.13490907  0.60813978  0.23829845     0.13000
O449        O  0.02300108  0.46797652  0.26575562    -0.74200
O450        O  0.98014270  0.51031263  0.26785311    -0.74300
O451        O  0.98047524  0.46777416  0.26596564    -0.74300
O452        O  0.02263857  0.51047027  0.26760232    -0.74400
O453        O  0.02274591  0.51181723  0.23287818    -0.74300
O454        O  0.98007114  0.46972036  0.23123781    -0.74300
O455        O  0.98037729  0.51214356  0.23316477    -0.74300
O456        O  0.02230904  0.46931540  0.23094240    -0.74300
Ni457      Ni  0.00157800  0.48909377  0.26804284     1.25400
Ni458      Ni  0.00138361  0.49081598  0.23084394     1.25400
C459        C  0.02944048  0.46144726  0.24790784     0.87900
C460        C  0.97312683  0.51827174  0.25081907     0.87900
C461        C  0.97324575  0.46167915  0.24828311     0.87900
C462        C  0.02975433  0.51819343  0.25055331     0.88100
N463        N  0.90921560  0.24567460  0.40441615    -0.03300
C464        C  0.91135629  0.25355341  0.38495828    -0.00700
C465        C  0.89425230  0.24857611  0.37276098    -0.23600
C466        C  0.88102845  0.23711322  0.38526944    -0.23800
C467        C  0.89064566  0.23559331  0.40455606    -0.00800
H468        H  0.89176320  0.25271513  0.35655069     0.13000
H469        H  0.86606106  0.23058161  0.38081949     0.13000
N470        N  0.90513538  0.24595998  0.59163167    -0.03300
C471        C  0.90691133  0.25347725  0.61141161    -0.00700
C472        C  0.88877915  0.24972150  0.62257271    -0.23600
C473        C  0.87532874  0.23961497  0.60921958    -0.23800
C474        C  0.88567207  0.23758582  0.59032535    -0.00800
H475        H  0.88551512  0.25425922  0.63855782     0.13000
H476        H  0.85972109  0.23421549  0.61292966     0.13000
N477        N  0.08960816  0.24029082  0.40765139    -0.03300
C478        C  0.09092134  0.25265632  0.39052468    -0.00700
C479        C  0.10884854  0.24822324  0.37929627    -0.23600
C480        C  0.11916946  0.23277318  0.39007694    -0.23800
C481        C  0.10696330  0.22811089  0.40728521    -0.00800
H482        H  0.11371334  0.25523243  0.36468624     0.13000
H483        H  0.13426180  0.22616074  0.38615833     0.13000
N484        N  0.08949546  0.24161050  0.59071718    -0.03300
C485        C  0.08779495  0.25013585  0.61003454    -0.00700
C486        C  0.10557921  0.24613895  0.62160720    -0.23600
C487        C  0.11851791  0.23439355  0.60908948    -0.23800
C488        C  0.10835434  0.23189976  0.59014536    -0.00800
H489        H  0.10895498  0.25145243  0.63731942     0.13000
H490        H  0.13379262  0.22844617  0.61331189     0.13000
O491        O  0.01860516  0.22708520  0.47908596    -0.74200
O492        O  0.97507920  0.22832018  0.52060074    -0.74300
O493        O  0.97632807  0.22821958  0.47804484    -0.74300
O494        O  0.01743318  0.22710582  0.52153577    -0.74400
O495        O  0.01879938  0.26202649  0.52118165    -0.74300
O496        O  0.97693169  0.26311645  0.47805610    -0.74300
O497        O  0.97603893  0.26325385  0.52058932    -0.74300
O498        O  0.01935976  0.26193152  0.47883049    -0.74300
Ni499      Ni  0.99680580  0.22646337  0.49983534     1.25400
Ni500      Ni  0.99779245  0.26383150  0.49971173     1.25400
C501        C  0.02617828  0.24429657  0.47201333     0.87900
C502        C  0.96830687  0.24599672  0.52734454     0.87900
C503        C  0.97006323  0.24576522  0.47060919     0.87900
C504        C  0.02505946  0.24435389  0.52836588     0.88100
O505        O  0.02474322  0.32040072  0.29663351    -0.74200
O506        O  0.98237511  0.29339535  0.32834808    -0.74300
O507        O  0.98286684  0.32100685  0.29625255    -0.74300
O508        O  0.02404065  0.29277607  0.32900153    -0.74400
O509        O  0.02479293  0.31970013  0.35130554    -0.74300
O510        O  0.98222450  0.34717589  0.31943544    -0.74300
O511        O  0.98264225  0.31945068  0.35157752    -0.74300
O512        O  0.02448067  0.34736392  0.31876257    -0.74300
Ni513      Ni  0.00353961  0.30598352  0.31175384     1.25400
Ni514      Ni  0.00358090  0.33441369  0.33608983     1.25400
C515        C  0.03119863  0.33861304  0.30197985     0.87900
C516        C  0.97583314  0.30160058  0.34540086     0.87900
C517        C  0.97584382  0.33876652  0.30241018     0.87900
C518        C  0.03068783  0.30130934  0.34586199     0.88100
O519        O  0.82302647  0.14272370  0.47524324    -0.74200
O520        O  0.85225254  0.17275798  0.51816881    -0.74300
O521        O  0.82118938  0.14347735  0.51751652    -0.74300
O522        O  0.85382691  0.17197771  0.47598066    -0.74400
O523        O  0.82961270  0.19695732  0.47445782    -0.74300
O524        O  0.79777767  0.16922469  0.51649587    -0.74300
O525        O  0.82859740  0.19826508  0.51639182    -0.74300
O526        O  0.79869427  0.16782425  0.47457421    -0.74300
Ni527      Ni  0.83843798  0.15680014  0.49678282     1.25400
Ni528      Ni  0.81284159  0.18395038  0.49541320     1.25400
C529        C  0.80585922  0.15021949  0.46819454     0.87900
C530        C  0.84547252  0.19070713  0.52411107     0.87900
C531        C  0.80388701  0.15158278  0.52372891     0.87900
C532        C  0.84722748  0.18940593  0.46857090     0.88100
O533        O  0.19587699  0.16009457  0.47640562    -0.74200
O534        O  0.16648388  0.18971663  0.51893274    -0.74300
O535        O  0.19764760  0.16079807  0.51802378    -0.74300
O536        O  0.16459082  0.18892456  0.47721443    -0.74400
O537        O  0.14103872  0.16311263  0.47825482    -0.74300
O538        O  0.17405370  0.13525197  0.51967229    -0.74300
O539        O  0.14253914  0.16445182  0.52043096    -0.74300
O540        O  0.17230243  0.13432732  0.47757438    -0.74300
Ni541      Ni  0.18194100  0.17579153  0.49759550     1.25400
Ni542      Ni  0.15659799  0.14835412  0.49908626     1.25400
C543        C  0.18929669  0.14215475  0.47038199     0.87900
C544        C  0.14941886  0.18238022  0.52639117     0.87900
C545        C  0.19173628  0.14298758  0.52507540     0.87900
C546        C  0.14730905  0.18078926  0.47124413     0.88100
O547        O  0.80898304  0.47069412  0.16186639    -0.74200
O548        O  0.83728042  0.51146619  0.19512627    -0.74300
O549        O  0.80791189  0.51265845  0.16441449    -0.74300
O550        O  0.83841189  0.46957879  0.19244721    -0.74400
O551        O  0.86346933  0.47146731  0.16819525    -0.74300
O552        O  0.83294289  0.51500979  0.14029597    -0.74300
O553        O  0.86245204  0.51388015  0.17110160    -0.74300
O554        O  0.83394309  0.47275983  0.13763598    -0.74300
Ni555      Ni  0.82227653  0.49105039  0.17929954     1.25400
Ni556      Ni  0.84913950  0.49338291  0.15344773     1.25400
C557        C  0.81660023  0.46510258  0.14419003     0.87900
C558        C  0.85464821  0.51916329  0.18882732     0.87900
C559        C  0.81508152  0.52061970  0.14748096     0.87900
C560        C  0.85601759  0.46358801  0.18502999     0.88100
O561        O  0.13777000  0.51749140  0.16780559    -0.74200
O562        O  0.16768557  0.47633432  0.13581185    -0.74300
O563        O  0.13870220  0.47511793  0.16703157    -0.74300
O564        O  0.16657088  0.51870468  0.13671626    -0.74400
O565        O  0.19206509  0.51872164  0.16056178    -0.74300
O566        O  0.16450893  0.47516445  0.19039505    -0.74300
O567        O  0.19331880  0.47692414  0.15943703    -0.74300
O568        O  0.16331172  0.51714209  0.19162062    -0.74300
Ni569      Ni  0.15172934  0.49689558  0.15096692     1.25400
Ni570      Ni  0.17916992  0.49700020  0.17634185     1.25400
C571        C  0.14560755  0.52377725  0.18512838     0.87900
C572        C  0.18564805  0.47016948  0.14223904     0.87900
C573        C  0.14694688  0.46807259  0.18387848     0.87900
C574        C  0.18411720  0.52554679  0.14353556     0.88100
O575        O  0.67418658  0.35630013  0.97452729    -0.74200
O576        O  0.64239153  0.32683325  0.01617474    -0.74300
O577        O  0.67531320  0.35410069  0.01666828    -0.74300
O578        O  0.64137558  0.32915610  0.97377290    -0.74400
O579        O  0.66342950  0.30206966  0.97221948    -0.74300
O580        O  0.69725664  0.32711992  0.01452100    -0.74300
O581        O  0.66454249  0.29989486  0.01399919    -0.74300
O582        O  0.69609113  0.32923842  0.97265929    -0.74300
Ni583      Ni  0.65746360  0.34255431  0.99538629     1.25400
Ni584      Ni  0.68109203  0.31365495  0.99329160     1.25400
C585        C  0.69066389  0.34770306  0.96697463     0.87900
C586        C  0.64807297  0.30835314  0.02161409     0.87900
C587        C  0.69229530  0.34498999  0.02223152     0.87900
C588        C  0.64680958  0.31138965  0.96612262     0.88100
O589        O  0.82640818  0.47864221  0.85226951    -0.74200
O590        O  0.85854319  0.51975053  0.82244866    -0.74300
O591        O  0.82775891  0.52102824  0.85165123    -0.74300
O592        O  0.85728282  0.47736715  0.82307682    -0.74400
O593        O  0.83350204  0.47807183  0.79753228    -0.74300
O594        O  0.80359696  0.52092341  0.82650322    -0.74300
O595        O  0.83446893  0.52012280  0.79726308    -0.74300
O596        O  0.80268038  0.47876417  0.82686581    -0.74300
Ni597      Ni  0.84336406  0.49917945  0.83826833     1.25400
Ni598      Ni  0.81771132  0.49948358  0.81115285     1.25400
C599        C  0.80909161  0.47200902  0.84462866     0.87900
C600        C  0.85184066  0.52663783  0.80486283     0.87900
C601        C  0.81056469  0.52782098  0.84395928     0.87900
C602        C  0.85042972  0.47091659  0.80540877     0.88100
O603        O  0.02142100  0.35440459  0.66580312    -0.74200
O604        O  0.97732169  0.32290586  0.63973233    -0.74300
O605        O  0.97885480  0.35546267  0.66727326    -0.74300
O606        O  0.01942660  0.32179696  0.63820361    -0.74400
O607        O  0.01937474  0.29944698  0.66484406    -0.74300
O608        O  0.97962417  0.33304904  0.69402962    -0.74300
O609        O  0.97752730  0.30075424  0.66652838    -0.74300
O610        O  0.02161908  0.33184866  0.69237967    -0.74300
Ni611      Ni  0.99925403  0.33951898  0.65181813     1.25400
Ni612      Ni  0.99956867  0.31551152  0.68036790     1.25400
C613        C  0.02869420  0.34834812  0.68347626     0.87900
C614        C  0.97039874  0.30633205  0.64865438     0.87900
C615        C  0.97273371  0.34978256  0.68549402     0.87900
C616        C  0.02562779  0.30463704  0.64653890     0.88100
O617        O  0.16667414  0.52057583  0.79978611    -0.74200
O618        O  0.19426582  0.47714779  0.82958439    -0.74300
O619        O  0.16558797  0.47865451  0.79831704    -0.74300
O620        O  0.19504365  0.51913404  0.83099999    -0.74400
O621        O  0.16931121  0.51925382  0.85447244    -0.74300
O622        O  0.13993671  0.47802548  0.82199003    -0.74300
O623        O  0.16865986  0.47666692  0.85330772    -0.74300
O624        O  0.14063049  0.52044899  0.82286210    -0.74300
Ni625      Ni  0.18127075  0.49885783  0.81387940     1.25400
Ni626      Ni  0.15368153  0.49860492  0.83904553     1.25400
C627        C  0.14898196  0.52753423  0.80604506     0.87900
C628        C  0.18632750  0.47001391  0.84648477     0.87900
C629        C  0.14786267  0.47183763  0.80464988     0.87900
C630        C  0.18720825  0.52580795  0.84818965     0.88100
O631        O  0.35215403  0.32256742  0.97310405    -0.74200
O632        O  0.32287903  0.35174796  0.01670905    -0.74300
O633        O  0.35149741  0.32007625  0.01526418    -0.74300
O634        O  0.32376341  0.35431185  0.97450794    -0.74400
O635        O  0.29762172  0.33119584  0.97324272    -0.74300
O636        O  0.32568067  0.29676600  0.01337850    -0.74300
O637        O  0.29715827  0.32827212  0.01500274    -0.74300
O638        O  0.32607123  0.29945378  0.97150618    -0.74300
Ni639      Ni  0.33850704  0.33802934  0.99498011     1.25400
Ni640      Ni  0.31073351  0.31310711  0.99319938     1.25400
C641        C  0.34402830  0.30589882  0.96543557     0.87900
C642        C  0.30493860  0.34504779  0.02269226     0.87900
C643        C  0.34336921  0.30258764  0.02081265     0.87900
C644        C  0.30590771  0.34853745  0.96750698     0.88100
O645        O  0.52071873  0.13947780  0.82599376    -0.74200
O646        O  0.47877828  0.16922599  0.85716747    -0.74300
O647        O  0.47875155  0.13696331  0.82933992    -0.74300
O648        O  0.52107342  0.17191490  0.85388596    -0.74400
O649        O  0.51724501  0.19495880  0.82795831    -0.74300
O650        O  0.47604433  0.15957428  0.80286677    -0.74300
O651        O  0.47537913  0.19180346  0.83078323    -0.74300
O652        O  0.51774108  0.16263285  0.80015576    -0.74300
Ni653      Ni  0.49997184  0.15361169  0.84258704     1.25400
Ni654      Ni  0.49646995  0.17805983  0.81454602     1.25400
C655        C  0.52577059  0.14585033  0.80767268     0.87900
C656        C  0.47030055  0.18550626  0.84908901     0.87900
C657        C  0.47100277  0.14229969  0.81167598     0.87900
C658        C  0.52599154  0.18924402  0.84501300     0.88100
O659        O  0.51792187  0.17192764  0.19620947    -0.74200
O660        O  0.47630936  0.19832647  0.16253781    -0.74300
O661        O  0.47579386  0.17092990  0.19482760    -0.74300
O662        O  0.51830783  0.19936985  0.16364912    -0.74400
O663        O  0.51973497  0.17263857  0.14120514    -0.74300
O664        O  0.47707240  0.14429213  0.17241471    -0.74300
O665        O  0.47747246  0.17176558  0.13996318    -0.74300
O666        O  0.51947092  0.14529237  0.17362478    -0.74300
Ni667      Ni  0.49706690  0.18606301  0.18011013     1.25400
Ni668      Ni  0.49848989  0.15751800  0.15601085     1.25400
C669        C  0.52537267  0.15417977  0.19059563     0.87900
C670        C  0.47016260  0.18962923  0.14557887     0.87900
C671        C  0.46936315  0.15289612  0.18884442     0.87900
C672        C  0.52582045  0.19081337  0.14712913     0.88100
O673        O  0.33108444  0.01588471  0.69679427    -0.74200
O674        O  0.30095415  0.97321903  0.66816504    -0.74300
O675        O  0.32951494  0.97391703  0.69949422    -0.74300
O676        O  0.30262540  0.01508566  0.66533503    -0.74400
O677        O  0.32889944  0.01334549  0.64242745    -0.74300
O678        O  0.35481899  0.97088908  0.67583486    -0.74300
O679        O  0.32612006  0.97113925  0.64424235    -0.74300
O680        O  0.35732033  0.01315593  0.67401123    -0.74300
Ni681      Ni  0.31515920  0.99463138  0.68326331     1.25400
Ni682      Ni  0.34273708  0.99201701  0.65828518     1.25400
C683        C  0.34930158  0.02129987  0.69050954     0.87900
C684        C  0.30811461  0.96552448  0.65113804     0.87900
C685        C  0.34671064  0.96560686  0.69339972     0.87900
C686        C  0.31120688  0.02079473  0.64816279     0.88100
O687        O  0.48213247  0.84791705  0.82327657    -0.74200
O688        O  0.52508890  0.81775982  0.85300559    -0.74300
O689        O  0.52436358  0.84822655  0.82289095    -0.74300
O690        O  0.48269269  0.81738568  0.85341142    -0.74400
O691        O  0.48289629  0.79309506  0.82848071    -0.74300
O692        O  0.52413112  0.82350644  0.79836372    -0.74300
O693        O  0.52479740  0.79347831  0.82803007    -0.74300
O694        O  0.48234534  0.82325940  0.79869215    -0.74300
Ni695      Ni  0.50356924  0.83372968  0.83908859     1.25400
Ni696      Ni  0.50353481  0.80750309  0.81258296     1.25400
C697        C  0.47555258  0.84080057  0.80568928     0.87900
C698        C  0.53180273  0.80035082  0.84548750     0.87900
C699        C  0.53084367  0.84106721  0.80529732     0.87900
C700        C  0.47606710  0.79991159  0.84603631     0.88100
O701        O  0.35367606  0.66924782  0.01864864    -0.74200
O702        O  0.31907238  0.64443989  0.97629932    -0.74300
O703        O  0.35175292  0.67175949  0.97651344    -0.74300
O704        O  0.32118889  0.64187045  0.01839345    -0.74400
O705        O  0.29898053  0.66868093  0.02101304    -0.74300
O706        O  0.32917466  0.69817509  0.97874723    -0.74300
O707        O  0.29668861  0.67095181  0.97919946    -0.74300
O708        O  0.33134845  0.69611245  0.02064382    -0.74300
Ni709      Ni  0.33724077  0.65586186  0.99737184     1.25400
Ni710      Ni  0.31327747  0.68441911  0.00002779     1.25400
C711        C  0.34825991  0.68702284  0.02622070     0.87900
C712        C  0.30194785  0.65346472  0.97094377     0.87900
C713        C  0.34561034  0.68994474  0.97069443     0.87900
C714        C  0.30483633  0.65025116  0.02635555     0.88100
O715        O  0.47757133  0.83531371  0.18909979    -0.74200
O716        O  0.51897941  0.79968576  0.16501847    -0.74300
O717        O  0.51919374  0.83289670  0.19182931    -0.74300
O718        O  0.47727650  0.80221827  0.16248459    -0.74400
O719        O  0.47992646  0.82415953  0.13549373    -0.74300
O720        O  0.52251545  0.85466192  0.16480756    -0.74300
O721        O  0.52187211  0.82129376  0.13790260    -0.74300
O722        O  0.48039671  0.85719168  0.16202368    -0.74300
Ni723      Ni  0.49819865  0.81675934  0.17805545     1.25400
Ni724      Ni  0.50136444  0.84012731  0.14908335     1.25400
C725        C  0.47229159  0.85213208  0.17960448     0.87900
C726        C  0.52673695  0.80415768  0.14710422     0.87900
C727        C  0.52732496  0.84918512  0.18347462     0.87900
C728        C  0.47173382  0.80805171  0.14416631     0.88100
O729        O  0.35493855  0.01820629  0.31702402    -0.74200
O730        O  0.33046568  0.97425110  0.34993249    -0.74300
O731        O  0.35709543  0.97598807  0.31677633    -0.74300
O732        O  0.32848575  0.01654381  0.35042257    -0.74400
O733        O  0.30136234  0.01541237  0.32867760    -0.74300
O734        O  0.33003108  0.97525469  0.29473083    -0.74300
O735        O  0.30331383  0.97343838  0.32804999    -0.74300
O736        O  0.32760080  0.01716091  0.29555447    -0.74300
Ni737      Ni  0.34372645  0.99627833  0.33433531     1.25400
Ni738      Ni  0.31461589  0.99522160  0.31100162     1.25400
C739        C  0.34543880  0.02468318  0.30057423     0.87900
C740        C  0.31253639  0.96703271  0.34460856     0.87900
C741        C  0.34847545  0.96944908  0.29994932     0.87900
C742        C  0.31012573  0.02261606  0.34520996     0.88100
O743        O  0.14984879  0.81756586  0.51387526    -0.74200
O744        O  0.18153895  0.84747308  0.47272741    -0.74300
O745        O  0.15099028  0.81791345  0.47155462    -0.74300
O746        O  0.18037655  0.84716909  0.51500579    -0.74400
O747        O  0.20416422  0.82178501  0.51575333    -0.74300
O748        O  0.17556950  0.79320783  0.47160038    -0.74300
O749        O  0.20615303  0.82268868  0.47381525    -0.74300
O750        O  0.17382514  0.79217192  0.51357979    -0.74300
Ni751      Ni  0.16481030  0.83344121  0.49327889     1.25400
Ni752      Ni  0.19077543  0.80658069  0.49370248     1.25400
C753        C  0.15650187  0.79972049  0.52016993     0.87900
C754        C  0.19922757  0.84011918  0.46682254     0.87900
C755        C  0.15834002  0.80060683  0.46447578     0.87900
C756        C  0.19728704  0.83944069  0.52245989     0.88100
O757        O  0.02130288  0.68980191  0.33060914    -0.74200
O758        O  0.97774306  0.65828273  0.30483997    -0.74300
O759        O  0.97934192  0.69066566  0.33234622    -0.74300
O760        O  0.01954256  0.65741638  0.30314926    -0.74400
O761        O  0.02045419  0.63477572  0.32968622    -0.74300
O762        O  0.97945237  0.66785520  0.35876857    -0.74300
O763        O  0.97814260  0.63545452  0.33122247    -0.74300
O764        O  0.02203617  0.66720397  0.35717988    -0.74300
Ni765      Ni  0.99945193  0.67484206  0.31683313     1.25400
Ni766      Ni  0.00004279  0.65051455  0.34521742     1.25400
C767        C  0.02874962  0.68382956  0.34817035     0.87900
C768        C  0.97102572  0.64152389  0.31351037     0.87900
C769        C  0.97277783  0.68478382  0.35031104     0.87900
C770        C  0.02637249  0.64050594  0.31142319     0.88100
O771        O  0.80537028  0.83476592  0.47321881    -0.74200
O772        O  0.83877744  0.80653346  0.51394412    -0.74300
O773        O  0.80707551  0.83493813  0.51520685    -0.74300
O774        O  0.83718751  0.80659453  0.47210579    -0.74400
O775        O  0.86039458  0.83259205  0.47090396    -0.74300
O776        O  0.83042809  0.86091916  0.51454280    -0.74300
O777        O  0.86209370  0.83250339  0.51328355    -0.74300
O778        O  0.82829029  0.86095661  0.47219881    -0.74300
Ni779      Ni  0.82129213  0.81982464  0.49364967     1.25400
Ni780      Ni  0.84613552  0.84771562  0.49266968     1.25400
C781        C  0.81098721  0.85266666  0.46618898     0.87900
C782        C  0.85608605  0.81455716  0.52003451     0.87900
C783        C  0.81370405  0.85266764  0.52180647     0.87900
C784        C  0.85397465  0.81462244  0.46468749     0.88100
O785        O  0.66542625  0.02168722  0.35810835    -0.74200
O786        O  0.63636859  0.97980941  0.32655631    -0.74300
O787        O  0.66815374  0.97956528  0.35524420    -0.74300
O788        O  0.63419099  0.02224216  0.32954248    -0.74400
O789        O  0.65791828  0.02508125  0.30405464    -0.74300
O790        O  0.69071683  0.98227740  0.32893057    -0.74300
O791        O  0.65927129  0.98329558  0.30047563    -0.74300
O792        O  0.68909438  0.02401870  0.33252681    -0.74300
Ni793      Ni  0.65011793  0.00066337  0.34328503     1.25400
Ni794      Ni  0.67503809  0.00375811  0.31560569     1.25400
C795        C  0.68229951  0.02935443  0.35059304     0.87900
C796        C  0.64288843  0.97483384  0.30825546     0.87900
C797        C  0.68553411  0.97439935  0.34654568     0.87900
C798        C  0.64069561  0.03062184  0.31253146     0.88100
O799        O  0.02196706  0.66704706  0.63532928    -0.74200
O800        O  0.97787843  0.64217492  0.66744746    -0.74300
O801        O  0.97957003  0.66977376  0.63494973    -0.74300
O802        O  0.01990597  0.63977869  0.66810804    -0.74400
O803        O  0.02133608  0.66687949  0.69000703    -0.74300
O804        O  0.98080840  0.69613648  0.65787203    -0.74300
O805        O  0.97964641  0.66854480  0.69036861    -0.74300
O806        O  0.02260723  0.69405922  0.65750455    -0.74300
Ni807      Ni  0.99978101  0.65372692  0.65059778     1.25400
Ni808      Ni  0.00113242  0.68234097  0.67469423     1.25400
C809        C  0.02926098  0.68486144  0.64097318     0.87900
C810        C  0.97211995  0.65089082  0.68454448     0.87900
C811        C  0.97377877  0.68807754  0.64096783     0.87900
C812        C  0.02689136  0.64831301  0.68488491     0.88100
O813        O  0.69988781  0.01658166  0.66500196    -0.74200
O814        O  0.67170403  0.97440202  0.69605897    -0.74300
O815        O  0.70032985  0.97479078  0.66452040    -0.74300
O816        O  0.67131850  0.01621668  0.69642863    -0.74400
O817        O  0.64555939  0.01640572  0.67313810    -0.74300
O818        O  0.67451142  0.97442832  0.64108390    -0.74300
O819        O  0.64581782  0.97431897  0.67284291    -0.74300
O820        O  0.67436579  0.01673501  0.64139159    -0.74300
Ni821      Ni  0.68670285  0.99547881  0.68129001     1.25400
Ni822      Ni  0.65912850  0.99546574  0.65623116     1.25400
C823        C  0.69216673  0.02334224  0.64783221     0.87900
C824        C  0.65369845  0.96797408  0.69013200     0.87900
C825        C  0.69254880  0.96826503  0.64728093     0.87900
C826        C  0.65332258  0.02275067  0.69050234     0.88100
O827        O  0.64292311  0.66320633  0.97955952    -0.74200
O828        O  0.67416455  0.63505767  0.02211863    -0.74300
O829        O  0.64343446  0.66449671  0.02156832    -0.74300
O830        O  0.67372294  0.63385779  0.97971475    -0.74400
O831        O  0.69756797  0.65938092  0.97881843    -0.74300
O832        O  0.66789256  0.68928461  0.02107173    -0.74300
O833        O  0.69858406  0.65999083  0.02066675    -0.74300
O834        O  0.66672935  0.68875146  0.97928397    -0.74300
Ni835      Ni  0.65771248  0.64819484  0.00078592     1.25400
Ni836      Ni  0.68354530  0.67522509  0.99990994     1.25400
C837        C  0.64940144  0.68098257  0.97296139     0.87900
C838        C  0.69162692  0.64278950  0.02818684     0.87900
C839        C  0.65042785  0.68225631  0.02783795     0.87900
C840        C  0.69079412  0.64157576  0.97258439     0.88100
C841        C  0.04467595  0.27082518  0.64466205    -0.26100
C842        C  0.04009816  0.29022140  0.63528686    -0.14200
C843        C  0.04958351  0.29515085  0.61585294     0.36400
C844        C  0.06472297  0.28145271  0.60744828    -0.25600
C845        C  0.07007552  0.26281435  0.61772897    -0.14800
C846        C  0.05938384  0.25718508  0.63613430     0.37500
N847        N  0.06289401  0.23754109  0.64638535    -0.89100
H848        H  0.03701574  0.26619875  0.65904467     0.18600
H849        H  0.07277919  0.28559517  0.59313576     0.18600
N850        N  0.04419419  0.31403520  0.60487989    -0.88100
H851        H  0.07825741  0.23697184  0.65184297     0.36000
H852        H  0.06068869  0.22549400  0.63551204     0.41100
H853        H  0.02869967  0.31249015  0.59987605     0.40700
H854        H  0.05321516  0.31556673  0.59132814     0.35600
C855        C  0.10668995  0.20458076  0.56202958    -0.26100
C856        C  0.11768522  0.22071078  0.57211354    -0.14200
C857        C  0.13860297  0.22474094  0.56642156     0.36400
C858        C  0.14844367  0.21192068  0.55161865    -0.25600
C859        C  0.13783933  0.19522858  0.54197877    -0.14800
C860        C  0.11655135  0.19187458  0.54693977     0.37500
N861        N  0.10484030  0.17573471  0.53669431    -0.89100
H862        H  0.09063272  0.20134476  0.56634419     0.18600
H863        H  0.16465552  0.21496510  0.54775722     0.18600
N864        N  0.14985153  0.24182902  0.57585519    -0.88100
H865        H  0.09207908  0.18273452  0.52921746     0.36000
H866        H  0.09904929  0.16558929  0.54812101     0.41100
H867        H  0.14249301  0.25571785  0.57135639     0.40700
H868        H  0.16517102  0.24257010  0.57012568     0.35600
C869        C  0.05948903  0.25610848  0.54227505    -0.26100
C870        C  0.04148063  0.24375100  0.54462767    -0.14200
C871        C  0.03953773  0.23065171  0.56227363     0.36400
C872        C  0.05570761  0.23010396  0.57713481    -0.25600
C873        C  0.07379962  0.24220843  0.57463068    -0.14800
C874        C  0.07573472  0.25542438  0.55701164     0.37500
N875        N  0.09356090  0.26876677  0.55391520    -0.89100
H876        H  0.06103595  0.26623006  0.52876845     0.18600
H877        H  0.05426171  0.22027411  0.59085248     0.18600
N878        N  0.02097749  0.21830606  0.56523391    -0.88100
H879        H  0.10139967  0.26347507  0.54057276     0.36000
H880        H  0.10409158  0.26772907  0.56633350     0.41100
H881        H  0.00848737  0.22869130  0.56729432     0.40700
H882        H  0.02204314  0.20952004  0.57897212     0.35600
C883        C  0.06275680  0.29925185  0.36758758    -0.26100
C884        C  0.04492662  0.28943615  0.35945322    -0.14200
C885        C  0.04090114  0.26821242  0.36420207     0.36400
C886        C  0.05562151  0.25680827  0.37579898    -0.25600
C887        C  0.07418774  0.26623869  0.38252804    -0.14800
C888        C  0.07754841  0.28778361  0.37887585     0.37500
N889        N  0.09585848  0.29832186  0.38635735    -0.89100
H890        H  0.06563121  0.31567533  0.36439741     0.18600
H891        H  0.05307937  0.24028568  0.37877742     0.18600
N892        N  0.02198371  0.25832956  0.35708857    -0.88100
H893        H  0.10904637  0.29144275  0.37958194     0.36000
H894        H  0.09669723  0.29629451  0.40255209     0.41100
H895        H  0.00943987  0.26584528  0.36449738     0.40700
H896        H  0.02150632  0.24268142  0.36181311     0.35600
C897        C  0.11909837  0.22451600  0.44359493    -0.26100
C898        C  0.11430875  0.21485532  0.42452991    -0.14200
C899        C  0.11882500  0.19338023  0.42155001     0.36400
C900        C  0.12851589  0.18212276  0.43754589    -0.25600
C901        C  0.13450077  0.19215614  0.45607940    -0.14800
C902        C  0.12936143  0.21337629  0.45941903     0.37500
N903        N  0.13492232  0.22355000  0.47870974    -0.89100
H904        H  0.11568934  0.24102003  0.44574303     0.18600
H905        H  0.13239348  0.16576454  0.43506601     0.18600
N906        N  0.11401763  0.18273096  0.40240352    -0.88100
H907        H  0.12657078  0.21623313  0.49073000     0.36000
H908        H  0.13016566  0.23921640  0.47857760     0.41100
H909        H  0.12232666  0.18975214  0.39022932     0.40700
H910        H  0.09804710  0.18437654  0.39940094     0.35600
C911        C  0.06956458  0.26021687  0.43385372    -0.26100
C912        C  0.07378618  0.24116957  0.42377562    -0.14200
C913        C  0.06246486  0.22322415  0.42962768     0.36400
C914        C  0.04723957  0.22453537  0.44544004    -0.25600
C915        C  0.04284092  0.24363208  0.45560461    -0.14800
C916        C  0.05432968  0.26164056  0.44965920     0.37500
N917        N  0.05084406  0.28140366  0.45971096    -0.89100
H918        H  0.07835258  0.27405236  0.42955146     0.18600
H919        H  0.03861892  0.21051442  0.44952024     0.18600
N920        N  0.06598330  0.20373678  0.41912324    -0.88100
H921        H  0.04661898  0.29228427  0.44826031     0.36000
H922        H  0.06495886  0.28630852  0.46636078     0.41100
H923        H  0.05187137  0.19895036  0.41239767     0.40700
H924        H  0.07024029  0.19261169  0.43033063     0.35600
C925        C  0.94795710  0.27446792  0.64842383    -0.26100
C926        C  0.95435081  0.29294168  0.63825842    -0.14200
C927        C  0.94581382  0.29762704  0.61832398     0.36400
C928        C  0.93117992  0.28384973  0.60928613    -0.25600
C929        C  0.92458056  0.26580755  0.61982450    -0.14800
C930        C  0.93320431  0.26093223  0.63946326     0.37500
N931        N  0.92685960  0.24223488  0.65027177    -0.89100
H932        H  0.95444409  0.27047206  0.66353930     0.18600
H933        H  0.92418196  0.28769354  0.59434993     0.18600
N934        N  0.95169400  0.31638207  0.60738415    -0.88100
H935        H  0.93455465  0.24097190  0.66463771     0.36000
H936        H  0.93161642  0.22940628  0.64126372     0.41100
H937        H  0.94560804  0.32908248  0.61576135     0.40700
H938        H  0.94470255  0.31687536  0.59261552     0.35600
C939        C  0.88702297  0.20998761  0.56268761    -0.26100
C940        C  0.87651524  0.22688681  0.57196393    -0.14200
C941        C  0.85633454  0.23218657  0.56503129     0.36400
C942        C  0.84683650  0.22042362  0.54921847    -0.25600
C943        C  0.85694815  0.20306293  0.54017656    -0.14800
C944        C  0.87750162  0.19798300  0.54682103     0.37500
N945        N  0.88859480  0.18063463  0.53769280    -0.89100
H946        H  0.90244725  0.20575532  0.56827346     0.18600
H947        H  0.83119321  0.22475032  0.54434987     0.18600
N948        N  0.84534652  0.24953087  0.57412113    -0.88100
H949        H  0.90314151  0.17864936  0.54488531     0.36000
H950        H  0.89165676  0.18443870  0.52209286     0.41100
H951        H  0.84170087  0.26009852  0.56219188     0.40700
H952        H  0.83131085  0.24392824  0.58037801     0.35600
C953        C  0.91722573  0.25676050  0.55664833    -0.26100
C954        C  0.92095012  0.24623652  0.57550803    -0.14200
C955        C  0.94003366  0.23568036  0.57831135     0.36400
C956        C  0.95503455  0.23562122  0.56225608    -0.25600
C957        C  0.95155934  0.24637109  0.54342677    -0.14800
C958        C  0.93224517  0.25702966  0.54054709     0.37500
N959        N  0.92706979  0.26787015  0.52152523    -0.89100
H960        H  0.90246954  0.26481156  0.55445089     0.18600
H961        H  0.96960678  0.22729213  0.56462197     0.18600
N962        N  0.94404516  0.22470898  0.59739044    -0.88100
H963        H  0.91380796  0.26067030  0.51521440     0.36000
H964        H  0.93874940  0.26633220  0.51025153     0.41100
H965        H  0.95761614  0.23095589  0.60405395     0.40700
H966        H  0.94692325  0.20899847  0.59374925     0.35600
C967        C  0.96008502  0.26779358  0.35542750    -0.26100
C968        C  0.96050225  0.28968778  0.35791578    -0.14200
C969        C  0.94567596  0.29944088  0.37116446     0.36400
C970        C  0.93008773  0.28711822  0.38058777    -0.25600
C971        C  0.92940293  0.26542951  0.37732126    -0.14800
C972        C  0.94469882  0.25566264  0.36488641     0.37500
N973        N  0.94465794  0.23351028  0.36121596    -0.89100
H974        H  0.97155889  0.26001081  0.34563691     0.18600
H975        H  0.91802665  0.29452653  0.38991847     0.18600
N976        N  0.94579240  0.32176276  0.37420021    -0.88100
H977        H  0.93052774  0.22940097  0.35411682     0.36000
H978        H  0.94559314  0.22590503  0.37563895     0.41100
H979        H  0.95905245  0.32542853  0.38302307     0.40700
H980        H  0.93295424  0.32642404  0.38322163     0.35600
C981        C  0.85291164  0.22147328  0.44740317    -0.26100
C982        C  0.85991486  0.20139373  0.45320119    -0.14200
C983        C  0.87860991  0.19349813  0.44416069     0.36400
C984        C  0.88892612  0.20532152  0.42872189    -0.25600
C985        C  0.88128427  0.22492637  0.42261273    -0.14800
C986        C  0.86340750  0.23324902  0.43239759     0.37500
N987        N  0.85559475  0.25369332  0.42742779    -0.89100
H988        H  0.83900649  0.22816051  0.45444209     0.18600
H989        H  0.90268233  0.19901741  0.42106739     0.18600
N990        N  0.88689101  0.17347932  0.45027134    -0.88100
H991        H  0.85162748  0.25413399  0.41159544     0.36000
H992        H  0.86749069  0.26457641  0.43014641     0.41100
H993        H  0.89220295  0.17494531  0.46566248     0.40700
H994        H  0.90002703  0.16965335  0.44129127     0.35600
C995        C  0.93850804  0.22950864  0.42277953    -0.26100
C996        C  0.92449052  0.24622960  0.42090424    -0.14200
C997        C  0.92586267  0.26329318  0.43495212     0.36400
C998        C  0.94095244  0.26290680  0.45089438    -0.25600
C999        C  0.95478286  0.24591522  0.45310411    -0.14800
C1000       C  0.95380784  0.22923045  0.43853152     0.37500
N1001       N  0.96856120  0.21224424  0.43950931    -0.89100
H1002       H  0.93750675  0.21666056  0.41175227     0.18600
H1003       H  0.94161751  0.27586208  0.46185175     0.18600
N1004       N  0.91200390  0.28098137  0.43377401    -0.88100
H1005       H  0.98339065  0.21843748  0.43641179     0.36000
H1006       H  0.96557279  0.20124339  0.42776340     0.41100
H1007       H  0.90142920  0.27941643  0.42146911     0.40700
H1008       H  0.92109495  0.29420420  0.43051732     0.35600
C1009       C  0.05389523  0.61179304  0.26743940    -0.26100
C1010       C  0.07336576  0.60786404  0.27666157    -0.14200
C1011       C  0.07652947  0.61247401  0.29795906     0.36400
C1012       C  0.06049401  0.62226236  0.30938992    -0.25600
C1013       C  0.04159325  0.62773304  0.29973358    -0.14800
C1014       C  0.03795279  0.62188963  0.27873063     0.37500
N1015       N  0.01809553  0.62605513  0.26902007    -0.89100
H1016       H  0.05153215  0.60801134  0.25108299     0.18600
H1017       H  0.06307869  0.62648551  0.32560492     0.18600
N1018       N  0.09618192  0.60757991  0.30769450    -0.88100
H1019       H  0.01754215  0.61940048  0.25407979     0.36000
H1020       H  0.01685702  0.64223242  0.26686480     0.41100
H1021       H  0.09789125  0.59128733  0.30742709     0.40700
H1022       H  0.09602707  0.61204707  0.32343337     0.35600
C1023       C  0.11743528  0.54822931  0.23079283    -0.26100
C1024       C  0.11643261  0.56923584  0.22445725    -0.14200
C1025       C  0.12366302  0.57495226  0.20440473     0.36400
C1026       C  0.13252412  0.55961864  0.19136446    -0.25600
C1027       C  0.13419766  0.53883819  0.19808148    -0.14800
C1028       C  0.12626760  0.53290984  0.21774449     0.37500
N1029       N  0.12704092  0.51135122  0.22424273    -0.89100
H1030       H  0.11201958  0.54388013  0.24623162     0.18600
H1031       H  0.13863850  0.56395165  0.17616181     0.18600
N1032       N  0.12207403  0.59630542  0.19745966    -0.88100
H1033       H  0.11981298  0.50951615  0.23880214     0.36000
H1034       H  0.14272709  0.50726714  0.22630154     0.41100
H1035       H  0.10616862  0.60000042  0.19646915     0.40700
H1036       H  0.12821037  0.59789487  0.18239216     0.35600
C1037       C  0.04924293  0.54712053  0.23298768    -0.26100
C1038       C  0.04599645  0.53494271  0.25107532    -0.14200
C1039       C  0.05834770  0.53925090  0.26906436     0.36400
C1040       C  0.07297357  0.55553827  0.26860439    -0.25600
C1041       C  0.07590324  0.56761331  0.25061957    -0.14800
C1042       C  0.06403536  0.56335531  0.23268575     0.37500
N1043       N  0.06670293  0.57584538  0.21431096    -0.89100
H1044       H  0.04006648  0.54427734  0.21903407     0.18600
H1045       H  0.08235294  0.55873151  0.28234824     0.18600
N1046       N  0.05685335  0.52722656  0.28789376    -0.88100
H1047       H  0.05229706  0.58269457  0.21068424     0.36000
H1048       H  0.07086975  0.56589432  0.20199432     0.41100
H1049       H  0.05935825  0.51143744  0.28431678     0.40700
H1050       H  0.04195454  0.52920688  0.29432891     0.35600
C1051       C  0.07117419  0.37726600  0.28022874    -0.26100
C1052       C  0.07452888  0.36885240  0.26026401    -0.14200
C1053       C  0.06318745  0.35115925  0.25374113     0.36400
C1054       C  0.04913866  0.34170120  0.26763904    -0.25600
C1055       C  0.04612633  0.34959892  0.28799215    -0.14800
C1056       C  0.05712654  0.36778017  0.29417862     0.37500
N1057       N  0.05454606  0.37639820  0.31470560    -0.89100
H1058       H  0.08002464  0.39083373  0.28528318     0.18600
H1059       H  0.04048405  0.32806897  0.26244560     0.18600
N1060       N  0.06603163  0.34288847  0.23300051    -0.88100
H1061       H  0.04955515  0.39192512  0.31315723     0.36000
H1062       H  0.06914863  0.37650344  0.32205153     0.41100
H1063       H  0.06100379  0.35432042  0.22243694     0.40700
H1064       H  0.05652429  0.32977768  0.23062558     0.35600
C1065       C  0.10647209  0.42941212  0.20474493    -0.26100
C1066       C  0.11858017  0.41820228  0.21917131    -0.14200
C1067       C  0.13952401  0.42404083  0.22267632     0.36400
C1068       C  0.14820782  0.44052190  0.21116772    -0.25600
C1069       C  0.13645086  0.45136824  0.19610895    -0.14800
C1070       C  0.11521273  0.44594665  0.19318301     0.37500
N1071       N  0.10245352  0.45708024  0.17852940    -0.89100
H1072       H  0.09040596  0.42487484  0.20187550     0.18600
H1073       H  0.16444294  0.44460394  0.21375859     0.18600
N1074       N  0.15198548  0.41297067  0.23777568    -0.88100
H1075       H  0.08970206  0.46339722  0.18662782     0.36000
H1076       H  0.09672144  0.44632493  0.16760512     0.41100
H1077       H  0.14535987  0.41558520  0.25248761     0.40700
H1078       H  0.16716915  0.41904171  0.23833461     0.35600
C1079       C  0.05813298  0.41180917  0.23202468    -0.26100
C1080       C  0.07672052  0.41362731  0.24342732    -0.14200
C1081       C  0.07937477  0.43069954  0.25729475     0.36400
C1082       C  0.06353750  0.44591975  0.25886682    -0.25600
C1083       C  0.04527413  0.44455511  0.24672095    -0.14800
C1084       C  0.04248439  0.42703657  0.23342761     0.37500
N1085       N  0.02367733  0.42395708  0.22164409    -0.89100
H1086       H  0.05595401  0.39848537  0.22173295     0.18600
H1087       H  0.06567224  0.45908404  0.26937979     0.18600
N1088       N  0.09759643  0.43280258  0.27026517    -0.88100
H1089       H  0.02211701  0.43613044  0.21086511     0.36000
H1090       H  0.01095934  0.42431681  0.23192711     0.41100
H1091       H  0.10780123  0.42017449  0.26831113     0.40700
H1092       H  0.10559980  0.44622056  0.26542548     0.35600
C1093       C  0.95653316  0.62783140  0.28044685    -0.26100
C1094       C  0.95524254  0.62895967  0.30233796    -0.14200
C1095       C  0.93870289  0.61873078  0.31282175     0.36400
C1096       C  0.92334094  0.60829626  0.30101807    -0.25600
C1097       C  0.92468102  0.60745453  0.27916539    -0.14800
C1098       C  0.94142649  0.61711117  0.26883800     0.37500
N1099       N  0.94266090  0.61669778  0.24647846    -0.89100
H1100       H  0.96925400  0.63548790  0.27226041     0.18600
H1101       H  0.91011985  0.60108664  0.30879822     0.18600
N1102       N  0.93719055  0.61953898  0.33522397    -0.88100
H1103       H  0.95690339  0.60982581  0.24229098     0.36000
H1104       H  0.94269054  0.63217394  0.24112112     0.41100
H1105       H  0.93466702  0.63515584  0.33940891     0.40700
H1106       H  0.92413644  0.61115043  0.34040267     0.35600
C1107       C  0.88504423  0.56632893  0.20852632    -0.26100
C1108       C  0.88329889  0.56369810  0.23022041    -0.14200
C1109       C  0.87322634  0.54573281  0.23828497     0.36400
C1110       C  0.86445537  0.53125440  0.22436447    -0.25600
C1111       C  0.86570353  0.53409833  0.20261635    -0.14800
C1112       C  0.87652279  0.55156799  0.19465824     0.37500
N1113       N  0.87806607  0.55488276  0.17257222    -0.89100
H1114       H  0.89267374  0.58015829  0.20233260     0.18600
H1115       H  0.85632111  0.51775955  0.23064924     0.18600
N1116       N  0.87079112  0.54206254  0.26035098    -0.88100
H1117       H  0.87114583  0.56931332  0.16910308     0.36000
H1118       H  0.89392150  0.55581363  0.16868198     0.41100
H1119       H  0.87741502  0.55397345  0.26935631     0.40700
H1120       H  0.87898011  0.52836136  0.26397420     0.35600
C1121       C  0.93367240  0.56083838  0.23547949    -0.26100
C1122       C  0.92455535  0.56559680  0.25480934    -0.14200
C1123       C  0.93144125  0.55494715  0.27275556     0.36400
C1124       C  0.94732851  0.53980148  0.27111026    -0.25600
C1125       C  0.95638939  0.53466733  0.25166806    -0.14800
C1126       C  0.94921964  0.54534836  0.23355588     0.37500
N1127       N  0.95758321  0.54055510  0.21323161    -0.89100
H1128       H  0.92842264  0.56920267  0.22173754     0.18600
H1129       H  0.95233538  0.53181201  0.28517835     0.18600
N1130       N  0.92190412  0.55900976  0.29259679    -0.88100
H1131       H  0.95160405  0.55079792  0.20197002     0.36000
H1132       H  0.95217429  0.52565261  0.20911091     0.41100
H1133       H  0.93365532  0.56359514  0.30300906     0.40700
H1134       H  0.91551008  0.54498666  0.29809005     0.35600
C1135       C  0.94272026  0.35874011  0.29927793    -0.26100
C1136       C  0.96024375  0.34975663  0.28956784    -0.14200
C1137       C  0.96256468  0.35109970  0.26766560     0.36400
C1138       C  0.94694639  0.36097458  0.25581361    -0.25600
C1139       C  0.92908299  0.36919498  0.26546786    -0.14800
C1140       C  0.92687330  0.36816634  0.28734733     0.37500
N1141       N  0.90858146  0.37669987  0.29729961    -0.89100
H1142       H  0.94106747  0.35773447  0.31611421     0.18600
H1143       H  0.94841949  0.36182475  0.23895063     0.18600
N1144       N  0.98075150  0.34244656  0.25760259    -0.88100
H1145       H  0.90959840  0.37504906  0.31353143     0.36000
H1146       H  0.89573232  0.36777281  0.29253926     0.41100
H1147       H  0.99377031  0.35085062  0.26285902     0.40700
H1148       H  0.97998049  0.34466245  0.24142797     0.35600
C1149       C  0.88513371  0.43394941  0.22711343    -0.26100
C1150       C  0.88662733  0.41399998  0.21799083    -0.14200
C1151       C  0.87934325  0.41083697  0.19738148     0.36400
C1152       C  0.87005770  0.42756072  0.18656580    -0.25600
C1153       C  0.86770149  0.44718113  0.19607925    -0.14800
C1154       C  0.87556432  0.45059269  0.21639019     0.37500
N1155       N  0.87395802  0.47095573  0.22592783    -0.89100
H1156       H  0.89060265  0.43632317  0.24296697     0.18600
H1157       H  0.86403916  0.42513686  0.17090484     0.18600
N1158       N  0.88113495  0.39058670  0.18765375    -0.88100
H1159       H  0.88122037  0.47101586  0.24058031     0.36000
H1160       H  0.85812994  0.47400681  0.22862048     0.41100
H1161       H  0.89704644  0.38730032  0.18588766     0.40700
H1162       H  0.87474312  0.39083604  0.17260758     0.35600
C1163       C  0.93088099  0.42198036  0.26288251    -0.26100
C1164       C  0.92766519  0.41188883  0.24367300    -0.14200
C1165       C  0.93950926  0.41809457  0.22608023     0.36400
C1166       C  0.95376764  0.43463393  0.22802202    -0.25600
C1167       C  0.95710914  0.44486570  0.24723046    -0.14800
C1168       C  0.94532145  0.43850910  0.26488197     0.37500
N1169       N  0.94768961  0.44900941  0.28464365    -0.89100
H1170       H  0.92164766  0.41718928  0.27624825     0.18600
H1171       H  0.96273184  0.43911872  0.21436115     0.18600
N1172       N  0.93782511  0.40775870  0.20615723    -0.88100
H1173       H  0.93816794  0.44211444  0.29601300     0.36000
H1174       H  0.94228761  0.46436098  0.28277657     0.41100
H1175       H  0.92811970  0.39467925  0.20703469     0.40700
H1176       H  0.95262019  0.40188679  0.20236323     0.35600
C1177       C  0.72591140  0.63023748  0.04088208    -0.26100
C1178       C  0.70422293  0.63165847  0.04386269    -0.14200
C1179       C  0.69504233  0.62287379  0.06185398     0.36400
C1180       C  0.70787578  0.61298936  0.07664164    -0.25600
C1181       C  0.72955116  0.61152704  0.07362370    -0.14800
C1182       C  0.73871792  0.62011924  0.05542431     0.37500
N1183       N  0.76087796  0.61975889  0.05154853    -0.89100
H1184       H  0.73301804  0.63717136  0.02715430     0.18600
H1185       H  0.70101026  0.60659916  0.09075927     0.18600
N1186       N  0.67289041  0.62460299  0.06534297    -0.88100
H1187       H  0.76343640  0.61048473  0.03829551     0.36000
H1188       H  0.76916988  0.61290032  0.06378380     0.41100
H1189       H  0.66937329  0.64050020  0.06719763     0.40700
H1190       H  0.66867820  0.61723366  0.07932015     0.35600
C1191       C  0.78022180  0.53541780  0.13911753    -0.26100
C1192       C  0.80196352  0.53589066  0.13590888    -0.14200
C1193       C  0.81042935  0.55066600  0.12177317     0.36400
C1194       C  0.79697717  0.56490821  0.11171271    -0.25600
C1195       C  0.77540318  0.56476129  0.11559040    -0.14800
C1196       C  0.76686477  0.54960819  0.12921352     0.37500
N1197       N  0.74488174  0.54851199  0.13391904    -0.89100
H1198       H  0.77343350  0.52398009  0.14962901     0.18600
H1199       H  0.80346467  0.57688771  0.10162364     0.18600
N1200       N  0.83261362  0.55175408  0.11828044    -0.88100
H1201       H  0.73945735  0.53396812  0.12868909     0.36000
H1202       H  0.73632701  0.55979946  0.12582790     0.41100
H1203       H  0.83957722  0.55646299  0.13231070     0.40700
H1204       H  0.83615347  0.56331085  0.10725773     0.35600
C1205       C  0.77204205  0.56553760  0.06197572    -0.26100
C1206       C  0.75341704  0.56959412  0.07274563    -0.14200
C1207       C  0.73493740  0.55928735  0.06666219     0.36400
C1208       C  0.73545037  0.54499680  0.04993164    -0.25600
C1209       C  0.75414962  0.54059566  0.03916113    -0.14800
C1210       C  0.77264675  0.55132207  0.04513000     0.37500
N1211       N  0.79194587  0.54793764  0.03407957    -0.89100
H1212       H  0.78607248  0.57385268  0.06653160     0.18600
H1213       H  0.72118705  0.53693435  0.04561069     0.18600
N1214       N  0.71577132  0.56318564  0.07773458    -0.88100
H1215       H  0.80406887  0.55660099  0.04083592     0.36000
H1216       H  0.79000230  0.55376319  0.01893064     0.41100
H1217       H  0.71770431  0.55779437  0.09302307     0.40700
H1218       H  0.70350402  0.55452866  0.07123992     0.35600
C1219       C  0.71700232  0.38320028  0.06124395    -0.26100
C1220       C  0.73616535  0.37331081  0.06524524    -0.14200
C1221       C  0.74098462  0.35442803  0.05483707     0.36400
C1222       C  0.72633533  0.34554091  0.04113033    -0.25600
C1223       C  0.70693519  0.35519775  0.03724003    -0.14800
C1224       C  0.70245736  0.37447250  0.04724683     0.37500
N1225       N  0.68311177  0.38516289  0.04356631    -0.89100
H1226       H  0.71285658  0.39733403  0.06960858     0.18600
H1227       H  0.73025137  0.33095577  0.03338036     0.18600
N1228       N  0.76076651  0.34427890  0.05831010    -0.88100
H1229       H  0.68655692  0.40010779  0.03784491     0.36000
H1230       H  0.67541499  0.38692407  0.05789390     0.41100
H1231       H  0.77246265  0.35426370  0.05273430     0.40700
H1232       H  0.76184049  0.33043249  0.04961465     0.35600
C1233       C  0.80285891  0.42113383  0.10615856    -0.26100
C1234       C  0.78123788  0.41944904  0.10939529    -0.14200
C1235       C  0.77112318  0.43350222  0.12317103     0.36400
C1236       C  0.78305418  0.44835534  0.13398549    -0.25600
C1237       C  0.80483696  0.44975477  0.13131015    -0.14800
C1238       C  0.81481388  0.43620611  0.11690372     0.37500
N1239       N  0.83706232  0.43720961  0.11380400    -0.89100
H1240       H  0.81054448  0.41010396  0.09578948     0.18600
H1241       H  0.77515484  0.45879060  0.14480230     0.18600
N1242       N  0.74900507  0.43267553  0.12726773    -0.88100
H1243       H  0.84180953  0.42637477  0.10245658     0.36000
H1244       H  0.84420315  0.43269904  0.12778652     0.41100
H1245       H  0.74160336  0.42094590  0.11864419     0.40700
H1246       H  0.74254309  0.44686933  0.12229671     0.35600
C1247       C  0.77103863  0.43704422  0.03963492    -0.26100
C1248       C  0.75391522  0.45085895  0.03948504    -0.14200
C1249       C  0.73770739  0.44808628  0.05434122     0.36400
C1250       C  0.73916052  0.43163576  0.06896866    -0.25600
C1251       C  0.75610989  0.41770975  0.06862611    -0.14800
C1252       C  0.77211598  0.42048948  0.05391597     0.37500
N1253       N  0.78949616  0.40635913  0.05345933    -0.89100
H1254       H  0.78353628  0.43882046  0.02832248     0.18600
H1255       H  0.72715734  0.42970714  0.08075530     0.18600
N1256       N  0.72005367  0.46203801  0.05473656    -0.88100
H1257       H  0.79009989  0.39949080  0.03861575     0.36000
H1258       H  0.80315806  0.41510659  0.05554243     0.41100
H1259       H  0.72554182  0.47690254  0.05886821     0.40700
H1260       H  0.70945413  0.45757547  0.06637127     0.35600
C1261       C  0.73667487  0.61839046  0.94327323    -0.26100
C1262       C  0.72708815  0.61225167  0.92458720    -0.14200
C1263       C  0.70523499  0.61404355  0.92233729     0.36400
C1264       C  0.69334331  0.62260172  0.93876052    -0.25600
C1265       C  0.70310841  0.62993680  0.95696602    -0.14800
C1266       C  0.72490082  0.62746605  0.95945582     0.37500
N1267       N  0.73497934  0.63453469  0.97827277    -0.89100
H1268       H  0.75350166  0.61704317  0.94480627     0.18600
H1269       H  0.67660258  0.62453873  0.93694218     0.18600
N1270       N  0.69537214  0.60775951  0.90313919    -0.88100
H1271       H  0.75109080  0.63183332  0.97752061     0.36000
H1272       H  0.72927803  0.62538746  0.99056046     0.41100
H1273       H  0.69750408  0.59159150  0.90151516     0.40700
H1274       H  0.67924187  0.61032985  0.90389256     0.35600
C1275       C  0.76517767  0.55762171  0.86767760    -0.26100
C1276       C  0.77557874  0.57429263  0.87733184    -0.14200
C1277       C  0.79751008  0.57578186  0.87617427     0.36400
C1278       C  0.80878256  0.56006473  0.86566955    -0.25600
C1279       C  0.79835134  0.54357670  0.85555125    -0.14800
C1280       C  0.77632292  0.54230468  0.85656612     0.37500
N1281       N  0.76537975  0.52546856  0.84636567    -0.89100
H1282       H  0.74825855  0.55685138  0.86845230     0.18600
H1283       H  0.82568096  0.56104176  0.86476053     0.18600
N1284       N  0.80816770  0.59326221  0.88553012    -0.88100
H1285       H  0.74922914  0.52704342  0.84839508     0.36000
H1286       H  0.76969645  0.51150843  0.85373955     0.41100
H1287       H  0.80359589  0.60677481  0.87752529     0.40700
H1288       H  0.82433314  0.59186594  0.88344006     0.35600
C1289       C  0.73735173  0.55832271  0.92052660    -0.26100
C1290       C  0.75400081  0.57253199  0.92003254    -0.14200
C1291       C  0.77108675  0.56971268  0.93375380     0.36400
C1292       C  0.77078849  0.55300114  0.94799205    -0.25600
C1293       C  0.75368673  0.53918357  0.94917422    -0.14800
C1294       C  0.73699985  0.54169721  0.93476815     0.37500
N1295       N  0.71978615  0.52737446  0.93372472    -0.89100
H1296       H  0.72448251  0.56026390  0.90968872     0.18600
H1297       H  0.78381734  0.55124078  0.95868008     0.18600
N1298       N  0.78875689  0.58362497  0.93392473    -0.88100
H1299       H  0.71118481  0.52832768  0.94757175     0.36000
H1300       H  0.72565845  0.51217598  0.93192089     0.41100
H1301       H  0.78686706  0.59579356  0.92322289     0.40700
H1302       H  0.78938205  0.59065989  0.94868445     0.35600
C1303       C  0.71032775  0.38362761  0.92341083    -0.26100
C1304       C  0.73124729  0.37719401  0.92194823    -0.14200
C1305       C  0.73906945  0.36226226  0.93621029     0.36400
C1306       C  0.72545806  0.35332805  0.95083086    -0.25600
C1307       C  0.70422774  0.35905168  0.95188672    -0.14800
C1308       C  0.69677133  0.37485867  0.93822803     0.37500
N1309       N  0.67545919  0.38177334  0.93837370    -0.89100
H1310       H  0.70429150  0.39509219  0.91248217     0.18600
H1311       H  0.73163448  0.34164483  0.96145153     0.18600
N1312       N  0.76055590  0.35555267  0.93618793    -0.88100
H1313       H  0.67219063  0.38852050  0.95290735     0.36000
H1314       H  0.66573783  0.36881712  0.93607785     0.41100
H1315       H  0.76936397  0.36343316  0.92494387     0.40700
H1316       H  0.76697290  0.35966650  0.95065959     0.35600
C1317       C  0.79024427  0.43187591  0.88509950    -0.26100
C1318       C  0.77250742  0.42381896  0.87508098    -0.14200
C1319       C  0.76598597  0.43265737  0.85607280     0.36400
C1320       C  0.77785969  0.44856914  0.84674736    -0.25600
C1321       C  0.79626881  0.45617488  0.85615012    -0.14800
C1322       C  0.80206577  0.44816159  0.87603738     0.37500
N1323       N  0.81995478  0.45632398  0.88693711    -0.89100
H1324       H  0.79519115  0.42510192  0.89980083     0.18600
H1325       H  0.77267691  0.45476859  0.83186739     0.18600
N1326       N  0.74715140  0.42555352  0.84623823    -0.88100
H1327       H  0.82239110  0.44821290  0.90091286     0.36000
H1328       H  0.81648365  0.47178343  0.89115878     0.41100
H1329       H  0.75091768  0.42021268  0.83124130     0.40700
H1330       H  0.73709508  0.43838848  0.84472247     0.35600
C1331       C  0.76765627  0.41865098  0.93485591    -0.26100
C1332       C  0.75267751  0.41972883  0.91894805    -0.14200
C1333       C  0.73753879  0.43582320  0.91918799     0.36400
C1334       C  0.73779082  0.45056622  0.93542491    -0.25600
C1335       C  0.75307661  0.44985151  0.95116355    -0.14800
C1336       C  0.76812226  0.43362478  0.95096608     0.37500
N1337       N  0.78357418  0.43223038  0.96723252    -0.89100
H1338       H  0.77901234  0.40604737  0.93457337     0.18600
H1339       H  0.72619053  0.46295873  0.93548466     0.18600
N1340       N  0.72164105  0.43754014  0.90340194    -0.88100
H1341       H  0.79351427  0.41947240  0.96464257     0.36000
H1342       H  0.77571678  0.42926662  0.98126827     0.41100
H1343       H  0.72285018  0.42558410  0.89231596     0.40700
H1344       H  0.72413016  0.45160871  0.89543018     0.35600
C1345       C  0.04666442  0.64638019  0.71820541    -0.26100
C1346       C  0.04140795  0.63696230  0.69898986    -0.14200
C1347       C  0.05030219  0.61731640  0.69389020     0.36400
C1348       C  0.06521452  0.60833910  0.70728715    -0.25600
C1349       C  0.07139119  0.61868653  0.72560595    -0.14800
C1350       C  0.06156697  0.63745648  0.73141696     0.37500
N1351       N  0.06683026  0.64756822  0.75072790    -0.89100
H1352       H  0.03954443  0.66105096  0.72293471     0.18600
H1353       H  0.07268606  0.59374440  0.70285969     0.18600
N1354       N  0.04474832  0.60666769  0.67497248    -0.88100
H1355       H  0.05319097  0.64890860  0.75966115     0.36000
H1356       H  0.07214007  0.66267643  0.74733280     0.41100
H1357       H  0.03888730  0.59190821  0.67894850     0.40700
H1358       H  0.05835232  0.60447020  0.66615580     0.35600
C1359       C  0.11043246  0.56861624  0.78585736    -0.26100
C1360       C  0.11948106  0.57350705  0.76651705    -0.14200
C1361       C  0.13784153  0.56307744  0.76005059     0.36400
C1362       C  0.14697165  0.54838921  0.77337312    -0.25600
C1363       C  0.13828484  0.54359603  0.79303875    -0.14800
C1364       C  0.11968281  0.55387925  0.79932284     0.37500
N1365       N  0.11041320  0.54971694  0.81936898    -0.89100
H1366       H  0.09651332  0.57693350  0.79081349     0.18600
H1367       H  0.16106837  0.54058864  0.76807021     0.18600
N1368       N  0.14769169  0.56689908  0.74016524    -0.88100
H1369       H  0.09647618  0.55811373  0.82116023     0.36000
H1370       H  0.12066474  0.55539627  0.83077819     0.41100
H1371       H  0.13922480  0.57749335  0.73109492     0.40700
H1372       H  0.14761396  0.55279286  0.73183198     0.35600
C1373       C  0.07935775  0.55712393  0.73366990    -0.26100
C1374       C  0.07615899  0.57526628  0.74563126    -0.14200
C1375       C  0.05749321  0.57767568  0.75705076     0.36400
C1376       C  0.04237810  0.56169821  0.75653636    -0.25600
C1377       C  0.04531661  0.54366982  0.74427424    -0.14800
C1378       C  0.06398494  0.54149363  0.73256127     0.37500
N1379       N  0.06789791  0.52346250  0.71977233    -0.89100
H1380       H  0.09370841  0.55538608  0.72481684     0.18600
H1381       H  0.02807944  0.56344451  0.76548154     0.18600
N1382       N  0.05397575  0.59645205  0.76897212    -0.88100
H1383       H  0.05645375  0.52275664  0.70813749     0.36000
H1384       H  0.06670814  0.51006772  0.72909058     0.41100
H1385       H  0.06524756  0.59706401  0.78078602     0.40700
H1386       H  0.03941021  0.59591443  0.77637412     0.35600
C1387       C  0.07854283  0.37886894  0.69508439    -0.26100
C1388       C  0.07648997  0.38229780  0.71664788    -0.14200
C1389       C  0.05860451  0.37494015  0.72718141     0.36400
C1390       C  0.04313226  0.36412366  0.71588545    -0.25600
C1391       C  0.04509304  0.36068688  0.69425618    -0.14800
C1392       C  0.06302907  0.36829614  0.68377143     0.37500
N1393       N  0.06646675  0.36454503  0.66195148    -0.89100
H1394       H  0.09253980  0.38408384  0.68706799     0.18600
H1395       H  0.02959607  0.35808296  0.72407495     0.18600
N1396       N  0.05654070  0.37790435  0.74937846    -0.88100
H1397       H  0.05454108  0.37179380  0.65346711     0.36000
H1398       H  0.06585125  0.34839079  0.65925198     0.41100
H1399       H  0.06847788  0.36941545  0.75664467     0.40700
H1400       H  0.04241779  0.37161636  0.75472254     0.35600
C1401       C  0.12304215  0.42177350  0.78498925    -0.26100
C1402       C  0.11966066  0.42678024  0.76392008    -0.14200
C1403       C  0.12384640  0.44717270  0.75678137     0.36400
C1404       C  0.13260246  0.46189792  0.77051314    -0.25600
C1405       C  0.13652328  0.45673898  0.79146840    -0.14800
C1406       C  0.13097700  0.43676547  0.79902212     0.37500
N1407       N  0.13431746  0.43150079  0.82060789    -0.89100
H1408       H  0.11956858  0.40608313  0.79043290     0.18600
H1409       H  0.13659066  0.47735366  0.76474012     0.18600
N1410       N  0.11987602  0.45274837  0.73547307    -0.88100
H1411       H  0.13016166  0.41590501  0.82339064     0.36000
H1412       H  0.12409991  0.44065747  0.82953908     0.41100
H1413       H  0.10945105  0.46538522  0.73543165     0.40700
H1414       H  0.13392132  0.45778460  0.72879673     0.35600
C1415       C  0.06859580  0.42884666  0.75966756    -0.26100
C1416       C  0.07800924  0.42474042  0.74030520    -0.14200
C1417       C  0.07161035  0.43618755  0.72253030     0.36400
C1418       C  0.05529779  0.45072674  0.72442550    -0.25600
C1419       C  0.04557127  0.45479419  0.74376407    -0.14800
C1420       C  0.05245624  0.44370094  0.76166705     0.37500
N1421       N  0.04303034  0.44732637  0.78176362    -0.89100
H1422       H  0.07379265  0.42016023  0.77324608     0.18600
H1423       H  0.05059885  0.45932892  0.71061005     0.18600
N1424       N  0.08166718  0.43399815  0.70251755    -0.88100
H1425       H  0.05044364  0.43842272  0.79330045     0.36000
H1426       H  0.02760822  0.44194368  0.78098572     0.41100
H1427       H  0.09445426  0.42388858  0.70325880     0.40700
H1428       H  0.08783973  0.44862381  0.69851762     0.35600
C1429       C  0.94729106  0.62156446  0.72963840    -0.26100
C1430       C  0.92641355  0.62045035  0.72297249    -0.14200
C1431       C  0.92083192  0.62883035  0.70328774     0.36400
C1432       C  0.93613574  0.63850225  0.69087025    -0.25600
C1433       C  0.95675526  0.64023373  0.69786825    -0.14800
C1434       C  0.96246733  0.63150300  0.71733535     0.37500
N1435       N  0.98356003  0.63241983  0.72485195    -0.89100
H1436       H  0.95168581  0.61529442  0.74474622     0.18600
H1437       H  0.93191623  0.64501889  0.67581083     0.18600
N1438       N  0.89960392  0.62751152  0.69601559    -0.88100
H1439       H  0.98794982  0.64814492  0.72614136     0.36000
H1440       H  0.99328615  0.62520742  0.71383540     0.41100
H1441       H  0.89606613  0.61165539  0.69396119     0.40700
H1442       H  0.89806954  0.63461023  0.68136621     0.35600
C1443       C  0.88656173  0.57312999  0.79135005    -0.26100
C1444       C  0.88460402  0.57373561  0.76954636    -0.14200
C1445       C  0.87303379  0.55793315  0.75918601     0.36400
C1446       C  0.86284339  0.54256076  0.77106434    -0.25600
C1447       C  0.86418344  0.54231149  0.79299824    -0.14800
C1448       C  0.87662340  0.55748928  0.80313834     0.37500
N1449       N  0.87842486  0.55771235  0.82545486    -0.89100
H1450       H  0.89531953  0.58527645  0.79933871     0.18600
H1451       H  0.85360040  0.53080759  0.76303713     0.18600
N1452       N  0.87063583  0.55736470  0.73682013    -0.88100
H1453       H  0.87290317  0.57215114  0.83090551     0.36000
H1454       H  0.89428523  0.55660100  0.82925680     0.41100
H1455       H  0.87873793  0.56950162  0.72951353     0.40700
H1456       H  0.87740970  0.54343170  0.73147932     0.35600
C1457       C  0.93594488  0.57133521  0.76553371    -0.26100
C1458       C  0.92650707  0.57757340  0.74681354    -0.14200
C1459       C  0.93207607  0.56749719  0.72808650     0.36400
C1460       C  0.94714089  0.55145278  0.72831385    -0.25600
C1461       C  0.95668556  0.54502986  0.74711273    -0.14800
C1462       C  0.95085654  0.55521560  0.76592427     0.37500
N1463       N  0.95999263  0.54939148  0.78551539    -0.89100
H1464       H  0.93164765  0.57908410  0.77999081     0.18600
H1465       H  0.95115430  0.54385529  0.71369225     0.18600
N1466       N  0.92200837  0.57313577  0.70892497    -0.88100
H1467       H  0.94794928  0.54482406  0.79559180     0.36000
H1468       H  0.96721309  0.56262382  0.79191588     0.41100
H1469       H  0.93354122  0.57782541  0.69832471     0.40700
H1470       H  0.91470917  0.55977735  0.70289477     0.35600
C1471       C  0.94595994  0.38080782  0.72834755    -0.26100
C1472       C  0.92537964  0.38117911  0.72090223    -0.14200
C1473       C  0.92082989  0.37280662  0.70096237     0.36400
C1474       C  0.93692424  0.36357829  0.68916532    -0.25600
C1475       C  0.95733993  0.36244533  0.69700230    -0.14800
C1476       C  0.96204749  0.37160433  0.71664092     0.37500
N1477       N  0.98279648  0.37163058  0.72532140    -0.89100
H1478       H  0.94947888  0.38703104  0.74371774     0.18600
H1479       H  0.93338715  0.35650976  0.67415380     0.18600
N1480       N  0.89982068  0.37341451  0.69296013    -0.88100
H1481       H  0.98727423  0.38726135  0.72731751     0.36000
H1482       H  0.99363028  0.36515497  0.71497903     0.41100
H1483       H  0.89569637  0.38914361  0.69099123     0.40700
H1484       H  0.89909367  0.36645596  0.67817050     0.35600
C1485       C  0.88124228  0.44360556  0.76300644    -0.26100
C1486       C  0.88258578  0.42324733  0.77112573    -0.14200
C1487       C  0.87414335  0.41897372  0.79106123     0.36400
C1488       C  0.86424554  0.43497429  0.80235900    -0.25600
C1489       C  0.86222014  0.45503091  0.79382912    -0.14800
C1490       C  0.87099639  0.45946792  0.77407501     0.37500
N1491       N  0.86969922  0.47991581  0.76493153    -0.89100
H1492       H  0.88730924  0.44701707  0.74758187     0.18600
H1493       H  0.85755047  0.43155439  0.81755409     0.18600
N1494       N  0.87545123  0.39836560  0.79980660    -0.88100
H1495       H  0.87634768  0.49069357  0.77529937     0.36000
H1496       H  0.85394187  0.48376556  0.76289332     0.41100
H1497       H  0.86024189  0.39313022  0.80275869     0.40700
H1498       H  0.88328158  0.39942846  0.81411809     0.35600
C1499       C  0.93470168  0.42735995  0.76463662    -0.26100
C1500       C  0.92397629  0.42303318  0.74601806    -0.14200
C1501       C  0.92828686  0.43525320  0.72816470     0.36400
C1502       C  0.94379219  0.45072565  0.72898033    -0.25600
C1503       C  0.95505026  0.45487280  0.74744992    -0.14800
C1504       C  0.94998648  0.44326007  0.76570035     0.37500
N1505       N  0.96035738  0.44740840  0.78520854    -0.89100
H1506       H  0.93098641  0.41826788  0.77843621     0.18600
H1507       H  0.94687482  0.45973837  0.71497393     0.18600
N1508       N  0.91658113  0.43291794  0.70923243    -0.88100
H1509       H  0.95568210  0.43664814  0.79660836     0.36000
H1510       H  0.95523441  0.46206189  0.79045465     0.41100
H1511       H  0.90067458  0.43435486  0.71272389     0.40700
H1512       H  0.91928439  0.41803192  0.70309455     0.35600
C1513       C  0.28708340  0.61471086  0.07060537    -0.26100
C1514       C  0.26546282  0.61795033  0.06982664    -0.14200
C1515       C  0.25677675  0.63110285  0.05452924     0.36400
C1516       C  0.27006768  0.64125989  0.04040301    -0.25600
C1517       C  0.29183160  0.63838695  0.04125345    -0.14800
C1518       C  0.30038031  0.62466134  0.05639254     0.37500
N1519       N  0.32243445  0.62128209  0.05838475    -0.89100
H1520       H  0.29369843  0.60486409  0.08271313     0.18600
H1521       H  0.26339983  0.65155159  0.02870180     0.18600
N1522       N  0.23457402  0.63460086  0.05389004    -0.88100
H1523       H  0.32978492  0.63579728  0.06032287     0.36000
H1524       H  0.32795072  0.61421704  0.04471866     0.41100
H1525       H  0.22751523  0.62038318  0.04992162     0.40700
H1526       H  0.23075878  0.64516735  0.04200509     0.35600
C1527       C  0.22835876  0.55541878  0.11840481    -0.26100
C1528       C  0.21797794  0.57352658  0.11184885    -0.14200
C1529       C  0.19615402  0.57537376  0.11439878     0.36400
C1530       C  0.18509453  0.55900876  0.12398468    -0.25600
C1531       C  0.19566513  0.54136223  0.13157900    -0.14800
C1532       C  0.21740391  0.53928412  0.12838861     0.37500
N1533       N  0.22821417  0.52081205  0.13535043    -0.89100
H1534       H  0.24514763  0.55421470  0.11635123     0.18600
H1535       H  0.16836459  0.56040286  0.12634633     0.18600
N1536       N  0.18535334  0.59376077  0.10718263    -0.88100
H1537       H  0.24417870  0.52184923  0.13197053     0.36000
H1538       H  0.22243829  0.50818556  0.12667357     0.41100
H1539       H  0.19016570  0.60640972  0.11638568     0.40700
H1540       H  0.16924825  0.59223925  0.10954738     0.35600
C1541       C  0.26199533  0.56442379  0.06790034    -0.26100
C1542       C  0.24315354  0.57530889  0.07073766    -0.14200
C1543       C  0.22575853  0.57008501  0.05814501     0.36400
C1544       C  0.22761902  0.55408025  0.04322692    -0.25600
C1545       C  0.24651987  0.54318032  0.04010896    -0.14800
C1546       C  0.26398251  0.54851133  0.05269728     0.37500
N1547       N  0.28349876  0.53753763  0.05047078    -0.89100
H1548       H  0.27520772  0.56839216  0.07772136     0.18600
H1549       H  0.21411987  0.55047887  0.03363878     0.18600
N1550       N  0.20621152  0.58111842  0.05945639    -0.88100
H1551       H  0.29402124  0.54216915  0.06210406     0.36000
H1552       H  0.29015511  0.54222104  0.03630173     0.41100
H1553       H  0.20699927  0.59372693  0.06979953     0.40700
H1554       H  0.19502703  0.57068631  0.06525750     0.35600
C1555       C  0.26012820  0.36694183  0.05502654    -0.26100
C1556       C  0.27090091  0.37938007  0.06944323    -0.14200
C1557       C  0.29290282  0.38104497  0.06826223     0.36400
C1558       C  0.30361554  0.36994668  0.05266581    -0.25600
C1559       C  0.29292129  0.35695386  0.03851205    -0.14800
C1560       C  0.27088405  0.35563895  0.03965988     0.37500
N1561       N  0.25929204  0.34292162  0.02527702    -0.89100
H1562       H  0.24325816  0.36554216  0.05606663     0.18600
H1563       H  0.32051340  0.37107035  0.05200083     0.18600
N1564       N  0.30491875  0.39324362  0.08287167    -0.88100
H1565       H  0.24855274  0.35252459  0.01754827     0.36000
H1566       H  0.25084983  0.33186384  0.03389231     0.41100
H1567       H  0.29543797  0.40054564  0.09399542     0.40700
H1568       H  0.31228217  0.40518996  0.07447053     0.35600
C1569       C  0.20229180  0.42249450  0.11093121    -0.26100
C1570       C  0.22405164  0.42492900  0.11118857    -0.14200
C1571       C  0.23305934  0.44284793  0.12022540     0.36400
C1572       C  0.22000501  0.45786891  0.12948481    -0.25600
C1573       C  0.19818001  0.45525525  0.12983415    -0.14800
C1574       C  0.18914819  0.43765314  0.11996928     0.37500
N1575       N  0.16688887  0.43454216  0.12031639    -0.89100
H1576       H  0.19561717  0.40844785  0.10412288     0.18600
H1577       H  0.22694217  0.47137091  0.13706279     0.18600
N1578       N  0.25541370  0.44530492  0.12063565    -0.88100
H1579       H  0.16301975  0.42008447  0.11364151     0.36000
H1580       H  0.16019802  0.44594569  0.11070508     0.41100
H1581       H  0.26156427  0.43338273  0.12999442     0.40700
H1582       H  0.25949735  0.45946976  0.12778867     0.35600
C1583       C  0.26679634  0.43397667  0.06658849    -0.26100
C1584       C  0.24873136  0.42209861  0.06999682    -0.14200
C1585       C  0.23097065  0.42553439  0.05753322     0.36400
C1586       C  0.23144925  0.44114908  0.04205098    -0.25600
C1587       C  0.24948163  0.45332603  0.03859062    -0.14800
C1588       C  0.26741688  0.44961878  0.05110176     0.37500
N1589       N  0.28605436  0.46192103  0.04840811    -0.89100
H1590       H  0.28028392  0.43134020  0.07644535     0.18600
H1591       H  0.21767251  0.44368304  0.03253452     0.18600
N1592       N  0.21256372  0.41303227  0.06065601    -0.88100
H1593       H  0.29788138  0.45676818  0.05844316     0.36000
H1594       H  0.28252710  0.47728870  0.05290296     0.41100
H1595       H  0.21641949  0.39752494  0.05705366     0.40700
H1596       H  0.20076664  0.41748220  0.05024562     0.35600
C1597       C  0.25538772  0.64069827  0.93566696    -0.26100
C1598       C  0.26280953  0.62307923  0.92489672    -0.14200
C1599       C  0.28320772  0.61560243  0.92907265     0.36400
C1600       C  0.29535564  0.62562513  0.94431988    -0.25600
C1601       C  0.28808346  0.64343787  0.95509707    -0.14800
C1602       C  0.26774459  0.65110790  0.95056274     0.37500
N1603       N  0.25955920  0.66935222  0.96097332    -0.89100
H1604       H  0.23987370  0.64657630  0.93215018     0.18600
H1605       H  0.31095009  0.61968223  0.94728052     0.18600
N1606       N  0.29266122  0.59878403  0.91744590    -0.88100
H1607       H  0.24391025  0.67182491  0.95692034     0.36000
H1608       H  0.26776140  0.68232740  0.95530613     0.41100
H1609       H  0.28321631  0.59367312  0.90518432     0.40700
H1610       H  0.29468561  0.58616870  0.92765588     0.35600
C1611       C  0.23100737  0.56055186  0.86863027    -0.26100
C1612       C  0.21998583  0.57424350  0.88166081    -0.14200
C1613       C  0.19846002  0.57118575  0.88506556     0.36400
C1614       C  0.18810426  0.55477149  0.87459521    -0.25600
C1615       C  0.19893243  0.54154819  0.86067217    -0.14800
C1616       C  0.22075677  0.54420721  0.85820579     0.37500
N1617       N  0.23262838  0.53045479  0.84503570    -0.89100
H1618       H  0.24758770  0.56295008  0.86602745     0.18600
H1619       H  0.17141189  0.55281013  0.87673262     0.18600
N1620       N  0.18712321  0.58522942  0.89851898    -0.88100
H1621       H  0.24431097  0.52350669  0.85411663     0.36000
H1622       H  0.23989403  0.53948728  0.83349978     0.41100
H1623       H  0.19300998  0.58334990  0.91364697     0.40700
H1624       H  0.17132895  0.58105973  0.89911508     0.35600
C1625       C  0.25493304  0.55983027  0.91819437    -0.26100
C1626       C  0.24386726  0.57820310  0.92293716    -0.14200
C1627       C  0.23367007  0.58004072  0.94232146     0.36400
C1628       C  0.23457212  0.56346048  0.95669786    -0.25600
C1629       C  0.24574539  0.54510522  0.95202298    -0.14800
C1630       C  0.25601907  0.54322246  0.93258809     0.37500
N1631       N  0.26705291  0.52428050  0.92738893    -0.89100
H1632       H  0.26259721  0.55846422  0.90315636     0.18600
H1633       H  0.22660321  0.56495475  0.97159095     0.18600
N1634       N  0.22196670  0.59854823  0.94716497    -0.88100
H1635       H  0.27366733  0.52540526  0.91247396     0.36000
H1636       H  0.25608630  0.51214814  0.92670324     0.41100
H1637       H  0.22817367  0.60507874  0.96081564     0.40700
H1638       H  0.20653112  0.59412657  0.95026405     0.35600
C1639       C  0.26207730  0.37606697  0.93881352    -0.26100
C1640       C  0.27231347  0.38224983  0.92047798    -0.14200
C1641       C  0.29417146  0.37958528  0.91876191     0.36400
C1642       C  0.30516269  0.36965035  0.93487826    -0.25600
C1643       C  0.29461365  0.36188550  0.95246762    -0.14800
C1644       C  0.27303125  0.36587621  0.95488116     0.37500
N1645       N  0.26234299  0.35937272  0.97354965    -0.89100
H1646       H  0.24534152  0.37838803  0.94019079     0.18600
H1647       H  0.32182419  0.36702020  0.93315642     0.18600
N1648       N  0.30549586  0.38659606  0.90075735    -0.88100
H1649       H  0.24650896  0.36342213  0.97283048     0.36000
H1650       H  0.26872379  0.36783472  0.98602041     0.41100
H1651       H  0.30282442  0.40265038  0.89894329     0.40700
H1652       H  0.29971285  0.37884556  0.88758055     0.35600
C1653       C  0.23151687  0.44106106  0.87110561    -0.26100
C1654       C  0.22209048  0.42210942  0.87665693    -0.14200
C1655       C  0.20043567  0.41924282  0.87352401     0.36400
C1656       C  0.18859869  0.43555469  0.86461025    -0.25600
C1657       C  0.19827425  0.45419741  0.85822253    -0.14800
C1658       C  0.21985351  0.45712980  0.86181504     0.37500
N1659       N  0.22981890  0.47643404  0.85591779    -0.89100
H1660       H  0.24816076  0.44310691  0.87359035     0.18600
H1661       H  0.17201732  0.43340727  0.86183647     0.18600
N1662       N  0.19057221  0.39994880  0.87959594    -0.88100
H1663       H  0.24578266  0.47600844  0.85946013     0.36000
H1664       H  0.22331242  0.48836442  0.86505939     0.41100
H1665       H  0.19633500  0.38808543  0.86989164     0.40700
H1666       H  0.17446281  0.40068734  0.87689913     0.35600
C1667       C  0.26536410  0.43423214  0.92150042    -0.26100
C1668       C  0.24694710  0.42302668  0.91777125    -0.14200
C1669       C  0.22879028  0.42795638  0.92917733     0.36400
C1670       C  0.22950471  0.44389702  0.94440097    -0.25600
C1671       C  0.24811456  0.45496800  0.94863651    -0.14800
C1672       C  0.26625361  0.45010394  0.93676276     0.37500
N1673       N  0.28546489  0.46136018  0.93990955    -0.89100
H1674       H  0.27915683  0.43045241  0.91242276     0.18600
H1675       H  0.21548335  0.44740680  0.95325008     0.18600
N1676       N  0.20980607  0.41652091  0.92543293    -0.88100
H1677       H  0.29647654  0.45723917  0.92852920     0.36000
H1678       H  0.29171853  0.45640271  0.95416902     0.41100
H1679       H  0.21246665  0.40091162  0.92957677     0.40700
H1680       H  0.19779188  0.42202022  0.93509471     0.35600
C1681       C  0.61787224  0.26503334  0.04877735    -0.26100
C1682       C  0.61460108  0.27405588  0.06848499    -0.14200
C1683       C  0.62110934  0.29481097  0.07231199     0.36400
C1684       C  0.63138266  0.30600564  0.05645690    -0.25600
C1685       C  0.63566605  0.29663078  0.03710167    -0.14800
C1686       C  0.62861902  0.27602592  0.03306032     0.37500
N1687       N  0.63214480  0.26645590  0.01299162    -0.89100
H1688       H  0.61288937  0.24903968  0.04599159     0.18600
H1689       H  0.63672957  0.32184408  0.05943885     0.18600
N1690       N  0.61753967  0.30426078  0.09241890    -0.88100
H1691       H  0.62486806  0.25180152  0.01223199     0.36000
H1692       H  0.64817377  0.26361403  0.01154470     0.41100
H1693       H  0.60136422  0.30543760  0.09452239     0.40700
H1694       H  0.62342852  0.31953957  0.09276033     0.35600
C1695       C  0.57428645  0.20485766  0.11572749    -0.26100
C1696       C  0.57108346  0.22632574  0.11237986    -0.14200
C1697       C  0.55287801  0.23602564  0.12011511     0.36400
C1698       C  0.53813603  0.22395962  0.13111223    -0.25600
C1699       C  0.54133868  0.20244610  0.13454892    -0.14800
C1700       C  0.55954742  0.19278232  0.12646922     0.37500
N1701       N  0.56400678  0.17104005  0.12980242    -0.89100
H1702       H  0.58857769  0.19751993  0.11025779     0.18600
H1703       H  0.52420065  0.23142037  0.13728110     0.18600
N1704       N  0.54984075  0.25818605  0.11746019    -0.88100
H1705       H  0.55241103  0.16208735  0.12253720     0.36000
H1706       H  0.56372527  0.16807758  0.14586792     0.41100
H1707       H  0.56161313  0.26588720  0.12581668     0.40700
H1708       H  0.53563602  0.26288023  0.12408382     0.35600
C1709       C  0.54987462  0.23294656  0.04463922    -0.26100
C1710       C  0.54161417  0.25219001  0.03771365    -0.14200
C1711       C  0.54944611  0.27095138  0.04675706     0.36400
C1712       C  0.56447070  0.26982372  0.06287692    -0.25600
C1713       C  0.57235105  0.25052531  0.06982853    -0.14800
C1714       C  0.56519913  0.23201343  0.06030694     0.37500
N1715       N  0.57397514  0.21220796  0.06602079    -0.89100
H1716       H  0.54455047  0.21836486  0.03778318     0.18600
H1717       H  0.57025162  0.28409485  0.07000457     0.18600
N1718       N  0.54233370  0.29107042  0.03959763    -0.88100
H1719       H  0.58060307  0.20549049  0.05265000     0.36000
H1720       H  0.56177884  0.20249456  0.07097535     0.41100
H1721       H  0.54779056  0.29298414  0.02430345     0.40700
H1722       H  0.54910136  0.30311044  0.04840029     0.35600
C1723       C  0.38068777  0.28177088  0.06263838    -0.26100
C1724       C  0.37448504  0.26076173  0.06369810    -0.14200
C1725       C  0.35864215  0.25336333  0.05036973     0.36400
C1726       C  0.34894006  0.26726683  0.03641458    -0.25600
C1727       C  0.35458420  0.28856756  0.03564838    -0.14800
C1728       C  0.37074839  0.29587297  0.04894725     0.37500
N1729       N  0.37653525  0.31763912  0.04911314    -0.89100
H1730       H  0.39255627  0.28743927  0.07330412     0.18600
H1731       H  0.33678704  0.26140229  0.02616803     0.18600
N1732       N  0.35226789  0.23178447  0.05134872    -0.88100
H1733       H  0.38884505  0.32027924  0.05954632     0.36000
H1734       H  0.36374630  0.32611716  0.05483191     0.41100
H1735       H  0.36503589  0.22261422  0.04678723     0.40700
H1736       H  0.34030161  0.22880989  0.04060613     0.35600
C1737       C  0.44285444  0.18865287  0.11765918    -0.26100
C1738       C  0.45422897  0.20029015  0.13248638    -0.14200
C1739       C  0.44976709  0.22185987  0.13492432     0.36400
C1740       C  0.43342602  0.23095471  0.12356247    -0.25600
C1741       C  0.42155540  0.21909960  0.10953144    -0.14800
C1742       C  0.42656261  0.19777812  0.10614230     0.37500
N1743       N  0.41518818  0.18479954  0.09168588    -0.89100
H1744       H  0.44619370  0.17215638  0.11538560     0.18600
H1745       H  0.42964369  0.24731692  0.12613179     0.18600
N1746       N  0.46174314  0.23467710  0.14889244    -0.88100
H1747       H  0.42564841  0.18007253  0.08002038     0.36000
H1748       H  0.40332772  0.19311726  0.08417532     0.41100
H1749       H  0.45153093  0.24123556  0.15987882     0.40700
H1750       H  0.46835545  0.24688616  0.14024207     0.35600
C1751       C  0.44961156  0.26027749  0.05377941    -0.26100
C1752       C  0.45120589  0.24538922  0.03765304    -0.14200
C1753       C  0.43649526  0.22886743  0.03667733     0.36400
C1754       C  0.42058713  0.22767006  0.05179198    -0.25600
C1755       C  0.41907169  0.24253379  0.06782661    -0.14800
C1756       C  0.43391607  0.25886717  0.06906053     0.37500
N1757       N  0.43346898  0.27427135  0.08546462    -0.89100
H1758       H  0.46085619  0.27294460  0.05471738     0.18600
H1759       H  0.40912994  0.21519506  0.05104603     0.18600
N1760       N  0.43741002  0.21370586  0.02005687    -0.88100
H1761       H  0.44719541  0.27254936  0.09417917     0.36000
H1762       H  0.42106522  0.27168437  0.09574696     0.41100
H1763       H  0.43439560  0.22165874  0.00611631     0.40700
H1764       H  0.42555424  0.20254454  0.02172039     0.35600
C1765       C  0.61762828  0.30039168  0.91577326    -0.26100
C1766       C  0.61257806  0.27916391  0.91841325    -0.14200
C1767       C  0.61774001  0.26902476  0.93721761     0.36400
C1768       C  0.62836283  0.28006927  0.95288307    -0.25600
C1769       C  0.63384029  0.30115598  0.95010621    -0.14800
C1770       C  0.62821640  0.31155893  0.93151542     0.37500
N1771       N  0.63415220  0.33303633  0.92831286    -0.89100
H1772       H  0.61388878  0.30803571  0.90112452     0.18600
H1773       H  0.63278326  0.27199523  0.96710979     0.18600
N1774       N  0.61320041  0.24723986  0.94001656    -0.88100
H1775       H  0.62880923  0.33834605  0.91380656     0.36000
H1776       H  0.65048480  0.33357091  0.92772781     0.41100
H1777       H  0.60388665  0.24571222  0.95337411     0.40700
H1778       H  0.62727914  0.23936814  0.94272434     0.35600
C1779       C  0.57627839  0.21047034  0.86866131    -0.26100
C1780       C  0.57044406  0.23116895  0.87331571    -0.14200
C1781       C  0.55004326  0.23806750  0.86826639     0.36400
C1782       C  0.53602833  0.22395799  0.85900642    -0.25600
C1783       C  0.54172228  0.20313785  0.85468982    -0.14800
C1784       C  0.56232104  0.19640256  0.85924384     0.37500
N1785       N  0.56996055  0.17587589  0.85382186    -0.89100
H1786       H  0.59207972  0.20529440  0.87200354     0.18600
H1787       H  0.52060670  0.22947276  0.85478802     0.18600
N1788       N  0.54327515  0.25936435  0.87120703    -0.88100
H1789       H  0.58239974  0.17785044  0.84337448     0.36000
H1790       H  0.55882251  0.16708739  0.84578885     0.41100
H1791       H  0.55529133  0.26900599  0.87655991     0.40700
H1792       H  0.53162886  0.25932977  0.88269183     0.35600
C1793       C  0.56204036  0.27393795  0.92317346    -0.26100
C1794       C  0.57083451  0.25512010  0.91601712    -0.14200
C1795       C  0.56454691  0.23617918  0.92520259     0.36400
C1796       C  0.54925675  0.23624053  0.94094185    -0.25600
C1797       C  0.54006290  0.25502682  0.94809767    -0.14800
C1798       C  0.54688251  0.27418644  0.93902114     0.37500
N1799       N  0.53890737  0.29416460  0.94542060    -0.89100
H1800       H  0.56701126  0.28860909  0.91627287     0.18600
H1801       H  0.54476355  0.22135893  0.94770866     0.18600
N1802       N  0.57423710  0.21688833  0.91913147    -0.88100
H1803       H  0.54213780  0.29633380  0.96130081     0.36000
H1804       H  0.52276229  0.29447022  0.94293485     0.41100
H1805       H  0.56251239  0.20669070  0.91399993     0.40700
H1806       H  0.58118072  0.21029239  0.93237363     0.35600
C1807       C  0.37711545  0.28885218  0.91890200    -0.26100
C1808       C  0.37503073  0.26703702  0.92023793    -0.14200
C1809       C  0.36337824  0.25818596  0.93667725     0.36400
C1810       C  0.35378693  0.27124738  0.95130879    -0.25600
C1811       C  0.35560680  0.29313830  0.95001206    -0.14800
C1812       C  0.36773662  0.30208385  0.93384606     0.37500
N1813       N  0.36968423  0.32444705  0.93205466    -0.89100
H1814       H  0.38572810  0.29557858  0.90596853     0.18600
H1815       H  0.34471733  0.26419976  0.96377871     0.18600
N1816       N  0.36075794  0.23598302  0.93865409    -0.88100
H1817       H  0.37790860  0.32838182  0.91847585     0.36000
H1818       H  0.37887201  0.32961577  0.94454107     0.41100
H1819       H  0.37553930  0.22911731  0.93989034     0.40700
H1820       H  0.35357573  0.23032145  0.92510312     0.35600
C1821       C  0.43931904  0.22978606  0.87367324    -0.26100
C1822       C  0.42120384  0.21923494  0.87991211    -0.14200
C1823       C  0.41993691  0.19729322  0.87770461     0.36400
C1824       C  0.43661934  0.18636814  0.86834804    -0.25600
C1825       C  0.45420540  0.19713357  0.86085414    -0.14800
C1826       C  0.45569689  0.21902111  0.86398906     0.37500
N1827       N  0.47380155  0.23064724  0.85782553    -0.89100
H1828       H  0.44036558  0.24663926  0.87551364     0.18600
H1829       H  0.43556303  0.16955714  0.86615920     0.18600
N1830       N  0.40158642  0.18632438  0.88465510    -0.88100
H1831       H  0.47564391  0.22945548  0.84164645     0.36000
H1832       H  0.48675715  0.22391769  0.86515424     0.41100
H1833       H  0.40059544  0.18817705  0.90087853     0.40700
H1834       H  0.40308629  0.17025734  0.88182422     0.35600
C1835       C  0.42144801  0.22984595  0.93295169    -0.26100
C1836       C  0.41849744  0.24663203  0.91922561    -0.14200
C1837       C  0.43128400  0.26460962  0.92108559     0.36400
C1838       C  0.44654638  0.26539125  0.93687468    -0.25600
C1839       C  0.44979565  0.24839135  0.95046386    -0.14800
C1840       C  0.43679681  0.23058652  0.94858201     0.37500
N1841       N  0.43876089  0.21336765  0.96277617    -0.89100
H1842       H  0.41165858  0.21606987  0.93151028     0.18600
H1843       H  0.45639485  0.27915518  0.93805929     0.18600
N1844       N  0.42959988  0.28203033  0.90696697    -0.88100
H1845       H  0.44195720  0.19987594  0.95405017     0.36000
H1846       H  0.42432348  0.21124613  0.97017024     0.41100
H1847       H  0.41850082  0.27917165  0.89536090     0.40700
H1848       H  0.44392544  0.28346345  0.89920918     0.35600
C1849       C  0.61160383  0.05944120  0.71358801    -0.26100
C1850       C  0.62087471  0.06484007  0.73269862    -0.14200
C1851       C  0.64016171  0.05554723  0.73830205     0.36400
C1852       C  0.65026945  0.04229045  0.72407444    -0.25600
C1853       C  0.64146824  0.03729746  0.70451014    -0.14800
C1854       C  0.62150238  0.04574616  0.69955078     0.37500
N1855       N  0.61091555  0.04111733  0.68037307    -0.89100
H1856       H  0.59687035  0.06656157  0.70914605     0.18600
H1857       H  0.66519707  0.03569127  0.72863820     0.18600
N1858       N  0.64996646  0.05908508  0.75826161    -0.88100
H1859       H  0.60821826  0.02497737  0.67955779     0.36000
H1860       H  0.62032474  0.04580434  0.66786810     0.41100
H1861       H  0.64040866  0.06780412  0.76823519     0.40700
H1862       H  0.65163853  0.04451155  0.76551967     0.35600
C1863       C  0.56110960  0.10232552  0.78636855    -0.26100
C1864       C  0.57154410  0.11300771  0.77030786    -0.14200
C1865       C  0.56580111  0.13379995  0.76573224     0.36400
C1866       C  0.55077032  0.14400203  0.77796114    -0.25600
C1867       C  0.54097869  0.13381788  0.79476096    -0.14800
C1868       C  0.54564782  0.11242125  0.79850043     0.37500
N1869       N  0.53475881  0.10101056  0.81451452    -0.89100
H1870       H  0.56549525  0.08632595  0.78991702     0.18600
H1871       H  0.54706842  0.16018734  0.77443843     0.18600
N1872       N  0.57533048  0.14469107  0.74862823    -0.88100
H1873       H  0.54023840  0.08559901  0.81535569     0.36000
H1874       H  0.51904890  0.10007661  0.81004843     0.41100
H1875       H  0.56350019  0.14933828  0.73834693     0.40700
H1876       H  0.58248928  0.15819198  0.75451198     0.35600
C1877       C  0.56264930  0.03370659  0.75944046    -0.26100
C1878       C  0.54413218  0.03747073  0.74831187    -0.14200
C1879       C  0.54133958  0.05695195  0.73821553     0.36400
C1880       C  0.55714248  0.07231474  0.73964300    -0.25600
C1881       C  0.57577683  0.06833653  0.75051724    -0.14800
C1882       C  0.57850795  0.04886832  0.76042727     0.37500
N1883       N  0.59723324  0.04467894  0.77193612    -0.89100
H1884       H  0.56486024  0.01884858  0.76733137     0.18600
H1885       H  0.55507666  0.08737745  0.73214020     0.18600
N1886       N  0.52221820  0.06134311  0.72726586    -0.88100
H1887       H  0.60426474  0.03134028  0.76551849     0.36000
H1888       H  0.59305894  0.04127094  0.78736606     0.41100
H1889       H  0.52166485  0.05152767  0.71417811     0.40700
H1890       H  0.52228371  0.07668725  0.72156669     0.35600
C1891       C  0.38667931  0.06470385  0.70732361    -0.26100
C1892       C  0.38101919  0.06691219  0.72838204    -0.14200
C1893       C  0.36575828  0.05370683  0.73708770     0.36400
C1894       C  0.35594018  0.03879821  0.72439672    -0.25600
C1895       C  0.36107962  0.03676469  0.70312201    -0.14800
C1896       C  0.37684643  0.04967309  0.69459335     0.37500
N1897       N  0.38237286  0.04814003  0.67294323    -0.89100
H1898       H  0.39826113  0.07509225  0.70059616     0.18600
H1899       H  0.34410261  0.02875537  0.73120117     0.18600
N1900       N  0.35998633  0.05586698  0.75872106    -0.88100
H1901       H  0.39837718  0.04488134  0.67199914     0.36000
H1902       H  0.37975940  0.06272754  0.66600337     0.41100
H1903       H  0.37303686  0.05195512  0.76769836     0.40700
H1904       H  0.34825086  0.04513800  0.76265048     0.35600
C1905       C  0.44487199  0.11039793  0.76927109    -0.26100
C1906       C  0.42485053  0.10796340  0.77777322    -0.14200
C1907       C  0.42102549  0.11427296  0.79854891     0.36400
C1908       C  0.43681355  0.12437116  0.80995366    -0.25600
C1909       C  0.45634086  0.12829098  0.80083409    -0.14800
C1910       C  0.46077492  0.12032567  0.78059828     0.37500
N1911       N  0.48099774  0.12231140  0.77090840    -0.89100
H1912       H  0.44796689  0.10543322  0.75336168     0.18600
H1913       H  0.43347752  0.13004468  0.82559182     0.18600
N1914       N  0.40103538  0.11062961  0.80798686    -0.88100
H1915       H  0.48653706  0.10718578  0.76794143     0.36000
H1916       H  0.49188712  0.12911889  0.78098341     0.41100
H1917       H  0.40333527  0.10151555  0.82135756     0.40700
H1918       H  0.39489194  0.12507813  0.81268773     0.35600
C1919       C  0.43585913  0.06592742  0.73255828    -0.26100
C1920       C  0.42341909  0.06778724  0.75048006    -0.14200
C1921       C  0.42624698  0.05369509  0.76713591     0.36400
C1922       C  0.44186942  0.03824838  0.76571985    -0.25600
C1923       C  0.45468007  0.03643059  0.74790351    -0.14800
C1924       C  0.45139564  0.05051116  0.73103290     0.37500
N1925       N  0.46384027  0.05003292  0.71241247    -0.89100
H1926       H  0.43360881  0.07679401  0.71976016     0.18600
H1927       H  0.44395086  0.02746839  0.77862053     0.18600
N1928       N  0.41280161  0.05468516  0.78511791    -0.88100
H1929       H  0.46153450  0.03574995  0.70484499     0.36000
H1930       H  0.47961395  0.05151195  0.71658348     0.41100
H1931       H  0.41619904  0.06850027  0.79318702     0.40700
H1932       H  0.41613055  0.04243609  0.79541708     0.35600
C1933       C  0.65179463  0.94609326  0.72216876    -0.26100
C1934       C  0.64200216  0.95332855  0.70385577    -0.14200
C1935       C  0.62122906  0.94688065  0.69958244     0.36400
C1936       C  0.61188128  0.93156568  0.71228620    -0.25600
C1937       C  0.62241455  0.92336695  0.72963346    -0.14800
C1938       C  0.64212089  0.93155621  0.73519354     0.37500
N1939       N  0.65244825  0.92583317  0.75424323    -0.89100
H1940       H  0.66723310  0.95161195  0.72645037     0.18600
H1941       H  0.59658027  0.92558603  0.70824183     0.18600
N1942       N  0.60969803  0.95572843  0.68244341    -0.88100
H1943       H  0.65614879  0.90992063  0.75391929     0.36000
H1944       H  0.64221508  0.92864952  0.76669522     0.41100
H1945       H  0.60715576  0.97154317  0.68592049     0.40700
H1946       H  0.59488452  0.94887514  0.68129807     0.35600
C1947       C  0.56789628  0.88319598  0.78443976    -0.26100
C1948       C  0.57511930  0.87343301  0.76618283    -0.14200
C1949       C  0.56729132  0.85367696  0.76043802     0.36400
C1950       C  0.55283779  0.84369866  0.77345553    -0.25600
C1951       C  0.54604485  0.85292518  0.79229334    -0.14800
C1952       C  0.55357262  0.87309853  0.79773872     0.37500
N1953       N  0.54704348  0.88317652  0.81677088    -0.89100
H1954       H  0.57429761  0.89826631  0.78890633     0.18600
H1955       H  0.54708097  0.82841819  0.76885226     0.18600
N1956       N  0.57430663  0.84369738  0.74150312    -0.88100
H1957       H  0.55322094  0.89831353  0.81774423     0.36000
H1958       H  0.55357020  0.87478341  0.82919093     0.41100
H1959       H  0.56939380  0.85295493  0.72895759     0.40700
H1960       H  0.56720291  0.82906391  0.73962697     0.35600
C1961       C  0.57998690  0.93606270  0.76084205    -0.26100
C1962       C  0.57798986  0.91825273  0.74818141    -0.14200
C1963       C  0.56010703  0.91583545  0.73555861     0.36400
C1964       C  0.54437196  0.93125223  0.73599639    -0.25600
C1965       C  0.54604547  0.94887129  0.74906849    -0.14800
C1966       C  0.56408970  0.95133864  0.76161818     0.37500
N1967       N  0.56661446  0.96969934  0.77442396    -0.89100
H1968       H  0.59392166  0.93784201  0.77030151     0.18600
H1969       H  0.53063580  0.92942835  0.72624794     0.18600
N1970       N  0.55812970  0.89777049  0.72226812    -0.88100
H1971       H  0.58136755  0.96975778  0.78147372     0.36000
H1972       H  0.55576087  0.96878455  0.78660466     0.41100
H1973       H  0.57018551  0.89830449  0.71123304     0.40700
H1974       H  0.54409962  0.89833378  0.71390704     0.35600
C1975       C  0.36081196  0.92817648  0.73799452    -0.26100
C1976       C  0.37940032  0.91936584  0.73041610    -0.14200
C1977       C  0.38730359  0.92587916  0.71102705     0.36400
C1978       C  0.37650164  0.94104542  0.69943023    -0.25600
C1979       C  0.35760262  0.94980247  0.70669604    -0.14800
C1980       C  0.34978862  0.94333408  0.72645148     0.37500
N1981       N  0.33069304  0.95189035  0.73474679    -0.89100
H1982       H  0.35462790  0.92280814  0.75283320     0.18600
H1983       H  0.38285359  0.94565842  0.68442335     0.18600
N1984       N  0.40580232  0.91643756  0.70260454    -0.88100
H1985       H  0.32799367  0.94639779  0.74991755     0.36000
H1986       H  0.31841489  0.94616158  0.72560778     0.41100
H1987       H  0.41670094  0.92832061  0.69982292     0.40700
H1988       H  0.40197859  0.90958884  0.68824666     0.35600
C1989       C  0.43529354  0.88122738  0.78692511    -0.26100
C1990       C  0.42864033  0.87188435  0.76823159    -0.14200
C1991       C  0.43864965  0.85352294  0.76113315     0.36400
C1992       C  0.45408457  0.84417704  0.77339081    -0.25600
C1993       C  0.46004319  0.85265245  0.79284706    -0.14800
C1994       C  0.45105440  0.87195570  0.79926371     0.37500
N1995       N  0.45761916  0.88197121  0.81829796    -0.89100
H1996       H  0.42775537  0.89550784  0.79218639     0.18600
H1997       H  0.46122154  0.82988356  0.76764249     0.18600
N1998       N  0.43366984  0.84414265  0.74137628    -0.88100
H1999       H  0.44885507  0.89553737  0.82104289     0.36000
H2000       H  0.47306280  0.88690407  0.81613039     0.41100
H2001       H  0.43546260  0.85546628  0.72971247     0.40700
H2002       H  0.41812056  0.83919353  0.74155328     0.35600
C2003       C  0.44256722  0.91262870  0.73812348    -0.26100
C2004       C  0.42415679  0.91607850  0.74951726    -0.14200
C2005       C  0.42204794  0.93475064  0.76128700     0.36400
C2006       C  0.43812450  0.94972997  0.76076941    -0.25600
C2007       C  0.45642721  0.94649803  0.74900989    -0.14800
C2008       C  0.45885273  0.92737150  0.73790022     0.37500
N2009       N  0.47768816  0.92199702  0.72677774    -0.89100
H2010       H  0.44435305  0.89811856  0.72948173     0.18600
H2011       H  0.43628686  0.96408638  0.76967069     0.18600
N2012       N  0.40430909  0.93869617  0.77453313    -0.88100
H2013       H  0.48361565  0.90826652  0.73344375     0.36000
H2014       H  0.48934499  0.93321432  0.72879229     0.41100
H2015       H  0.39416103  0.92591804  0.77503854     0.40700
H2016       H  0.39602612  0.95128148  0.76815588     0.35600
C2017       C  0.63156781  0.72679940  0.06277361    -0.26100
C2018       C  0.61508662  0.71709055  0.07330884    -0.14200
C2019       C  0.60940979  0.69642586  0.06832141     0.36400
C2020       C  0.62092002  0.68549587  0.05311846    -0.25600
C2021       C  0.63805301  0.69486212  0.04294380    -0.14800
C2022       C  0.64298199  0.71607832  0.04740420     0.37500
N2023       N  0.65955309  0.72669826  0.03651279    -0.89100
H2024       H  0.63573533  0.74275755  0.06684662     0.18600
H2025       H  0.61680803  0.66939834  0.04965571     0.18600
N2026       N  0.59239588  0.68646338  0.07911958    -0.88100
H2027       H  0.66147103  0.74193791  0.04223057     0.36000
H2028       H  0.65494785  0.72821182  0.02090908     0.41100
H2029       H  0.59661427  0.68505697  0.09484642     0.40700
H2030       H  0.59012591  0.67124345  0.07349346     0.35600
C2031       C  0.56336030  0.77744963  0.10814562    -0.26100
C2032       C  0.56868354  0.75930465  0.11919308    -0.14200
C2033       C  0.55948112  0.75541790  0.13872732     0.36400
C2034       C  0.54592923  0.77022414  0.14749383    -0.25600
C2035       C  0.54107113  0.78892423  0.13691707    -0.14800
C2036       C  0.54944728  0.79216367  0.11667757     0.37500
N2037       N  0.54399981  0.81029673  0.10468768    -0.89100
H2038       H  0.57054266  0.78061267  0.09314259     0.18600
H2039       H  0.53927060  0.76698599  0.16272839     0.18600
N2040       N  0.56383308  0.73632825  0.14965549    -0.88100
H2041       H  0.53732294  0.80522434  0.09063249     0.36000
H2042       H  0.55773721  0.81841163  0.10113299     0.41100
H2043       H  0.54967267  0.72850462  0.15205415     0.40700
H2044       H  0.57005861  0.74016301  0.16428002     0.35600
C2045       C  0.53939835  0.72636247  0.05945024    -0.26100
C2046       C  0.54211686  0.74067908  0.04297856    -0.14200
C2047       C  0.55988816  0.75386481  0.04303397     0.36400
C2048       C  0.57470830  0.75204072  0.05920517    -0.25600
C2049       C  0.57175704  0.73802509  0.07576613    -0.14800
C2050       C  0.55376780  0.72514490  0.07602070     0.37500
N2051       N  0.54978807  0.71043926  0.09255534    -0.89100
H2052       H  0.52580238  0.71622498  0.05961635     0.18600
H2053       H  0.58851819  0.76186415  0.05918967     0.18600
N2054       N  0.56321400  0.76858446  0.02637621    -0.88100
H2055       H  0.53616592  0.71524614  0.10023738     0.36000
H2056       H  0.56171106  0.71052999  0.10368844     0.41100
H2057       H  0.55208585  0.78047908  0.02800998     0.40700
H2058       H  0.57777733  0.77585137  0.02795446     0.35600
C2059       C  0.38187052  0.72836094  0.05138305    -0.26100
C2060       C  0.38071149  0.72230684  0.07238152    -0.14200
C2061       C  0.37076617  0.70333448  0.07780828     0.36400
C2062       C  0.36144682  0.69115322  0.06208794    -0.25600
C2063       C  0.36173799  0.69778612  0.04124707    -0.14800
C2064       C  0.37242353  0.71638309  0.03571918     0.37500
N2065       N  0.37375226  0.72375121  0.01451257    -0.89100
H2066       H  0.38931813  0.74300342  0.04717266     0.18600
H2067       H  0.35306185  0.67698518  0.06620644     0.18600
N2068       N  0.36966854  0.69686807  0.09931059    -0.88100
H2069       H  0.36514966  0.73765627  0.01353303     0.36000
H2070       H  0.36716930  0.71320014  0.00393686     0.41100
H2071       H  0.38492390  0.69400116  0.10440894     0.40700
H2072       H  0.36154102  0.68271649  0.10066495     0.35600
C2073       C  0.45574934  0.77384505  0.13551108    -0.26100
C2074       C  0.45581223  0.79569780  0.13297286    -0.14200
C2075       C  0.44044594  0.80529335  0.12034912     0.36400
C2076       C  0.42488974  0.79281663  0.11111660    -0.25600
C2077       C  0.42480121  0.77106965  0.11392219    -0.14800
C2078       C  0.44048203  0.76138672  0.12588807     0.37500
N2079       N  0.44034829  0.73905575  0.12882123    -0.89100
H2080       H  0.46766831  0.76647858  0.14504609     0.18600
H2081       H  0.41256102  0.80006312  0.10202175     0.18600
N2082       N  0.44030482  0.82763222  0.11747881    -0.88100
H2083       H  0.45265589  0.73447882  0.13856069     0.36000
H2084       H  0.44319331  0.73213282  0.11428281     0.41100
H2085       H  0.43726521  0.83452194  0.13201274     0.40700
H2086       H  0.42808284  0.83207849  0.10757689     0.35600
C2087       C  0.42930790  0.76357143  0.06319225    -0.26100
C2088       C  0.42359008  0.74509616  0.07350144    -0.14200
C2089       C  0.43317611  0.72599154  0.06752713     0.36400
C2090       C  0.44776999  0.72589705  0.05107885    -0.25600
C2091       C  0.45361604  0.74444844  0.04071514    -0.14800
C2092       C  0.44403799  0.76354604  0.04687381     0.37500
N2093       N  0.44894390  0.78285805  0.03641062    -0.89100
H2094       H  0.42167821  0.77808190  0.06756548     0.18600
H2095       H  0.45497101  0.71114348  0.04674552     0.18600
N2096       N  0.42881226  0.70652294  0.07793993    -0.88100
H2097       H  0.44108496  0.79545171  0.04335236     0.36000
H2098       H  0.44324289  0.78170171  0.02113073     0.41100
H2099       H  0.41912472  0.70880271  0.09085555     0.40700
H2100       H  0.44292188  0.70090049  0.08399950     0.35600
C2101       C  0.62255320  0.72514475  0.94397885    -0.26100
C2102       C  0.61616397  0.71468755  0.92583322    -0.14200
C2103       C  0.61881059  0.69283686  0.92412564     0.36400
C2104       C  0.62897335  0.68195477  0.94021675    -0.25600
C2105       C  0.63684368  0.69264578  0.95765577    -0.14800
C2106       C  0.63302851  0.71434126  0.95995796     0.37500
N2107       N  0.63958163  0.72525849  0.97851849    -0.89100
H2108       H  0.62041471  0.74195409  0.94514576     0.18600
H2109       H  0.63157753  0.66523292  0.93873247     0.18600
N2110       N  0.61174959  0.68193723  0.90576517    -0.88100
H2111       H  0.63397800  0.74065291  0.97843616     0.36000
H2112       H  0.65587620  0.72639866  0.97812518     0.41100
H2113       H  0.59544328  0.68278773  0.90557721     0.40700
H2114       H  0.61549493  0.66601608  0.90669263     0.35600
C2115       C  0.57134211  0.78031856  0.88584473    -0.26100
C2116       C  0.57663289  0.76085081  0.87713382    -0.14200
C2117       C  0.56702536  0.75445847  0.85832269     0.36400
C2118       C  0.55271122  0.76764848  0.84850766    -0.25600
C2119       C  0.54745857  0.78736621  0.85689644    -0.14800
C2120       C  0.55685514  0.79362777  0.87593664     0.37500
N2121       N  0.55197095  0.81346089  0.88522674    -0.89100
H2122       H  0.57886298  0.78547647  0.90011963     0.18600
H2123       H  0.54560588  0.76222273  0.83411138     0.18600
N2124       N  0.57109595  0.73442300  0.84899981    -0.88100
H2125       H  0.56586568  0.82196581  0.88670788     0.36000
H2126       H  0.54611343  0.81072243  0.90024502     0.41100
H2127       H  0.56806899  0.72277841  0.86006264     0.40700
H2128       H  0.58678332  0.73360014  0.84457838     0.35600
C2129       C  0.57533611  0.75630112  0.93541547    -0.26100
C2130       C  0.57558889  0.73986188  0.92090393    -0.14200
C2131       C  0.56023353  0.72399477  0.92218079     0.36400
C2132       C  0.54535569  0.72466999  0.93831622    -0.25600
C2133       C  0.54492213  0.74119787  0.95285918    -0.14800
C2134       C  0.56010589  0.75727689  0.95129623     0.37500
N2135       N  0.56030706  0.77430389  0.96603973    -0.89100
H2136       H  0.58734267  0.76822950  0.93448012     0.18600
H2137       H  0.53370241  0.71237520  0.93916361     0.18600
N2138       N  0.55924802  0.70704449  0.90739952    -0.88100
H2139       H  0.57228265  0.78488070  0.96251378     0.36000
H2140       H  0.56379752  0.76803317  0.98071850     0.41100
H2141       H  0.57060602  0.70863982  0.89580506     0.40700
H2142       H  0.54483413  0.70804217  0.89975496     0.35600
C2143       C  0.38694638  0.70659709  0.93066865    -0.26100
C2144       C  0.37863617  0.72567282  0.92381283    -0.14200
C2145       C  0.35985642  0.73316361  0.93255382     0.36400
C2146       C  0.34967640  0.72136793  0.94798996    -0.25600
C2147       C  0.35752203  0.70185054  0.95456854    -0.14800
C2148       C  0.37642943  0.69434314  0.94562830     0.37500
N2149       N  0.38472823  0.67419197  0.95128535    -0.89100
H2150       H  0.40110351  0.70068482  0.92349557     0.18600
H2151       H  0.33527947  0.72738169  0.95461702     0.18600
N2152       N  0.35104234  0.75262926  0.92545463    -0.88100
H2153       H  0.39916260  0.67160936  0.94403009     0.36000
H2154       H  0.37457944  0.66284016  0.94527121     0.41100
H2155       H  0.36149770  0.76457409  0.92943220     0.40700
H2156       H  0.33703844  0.75586534  0.93327128     0.35600
C2157       C  0.43812973  0.77857090  0.88732014    -0.26100
C2158       C  0.42853794  0.76234335  0.87603811    -0.14200
C2159       C  0.43535790  0.75789001  0.85557605     0.36400
C2160       C  0.45096257  0.77028446  0.84648536    -0.25600
C2161       C  0.46015736  0.78713766  0.85733635    -0.14800
C2162       C  0.45386521  0.79091874  0.87831204     0.37500
N2163       N  0.46296302  0.80708872  0.89090711    -0.89100
H2164       H  0.43279753  0.78231149  0.90295116     0.18600
H2165       H  0.45568304  0.76684070  0.83058157     0.18600
N2166       N  0.42619431  0.74088735  0.84398120    -0.88100
H2167       H  0.45986584  0.82160599  0.88403340     0.36000
H2168       H  0.47911451  0.80467208  0.89164107     0.41100
H2169       H  0.42991077  0.72698558  0.85176901     0.40700
H2170       H  0.43279722  0.73977748  0.82905822     0.35600
C2171       C  0.42221399  0.75654138  0.93705306    -0.26100
C2172       C  0.42383931  0.74276341  0.92008162    -0.14200
C2173       C  0.44126611  0.72938316  0.91847924     0.36400
C2174       C  0.45664502  0.72973573  0.93424747    -0.25600
C2175       C  0.45530984  0.74385790  0.95111144    -0.14800
C2176       C  0.43802340  0.75765250  0.95231971     0.37500
N2177       N  0.43626037  0.77234204  0.96929306    -0.89100
H2178       H  0.40881348  0.76689708  0.93795223     0.18600
H2179       H  0.46992301  0.71922504  0.93319752     0.18600
N2180       N  0.44331711  0.71570898  0.90072201    -0.88100
H2181       H  0.42197271  0.78028247  0.96857655     0.36000
H2182       H  0.44781112  0.78372948  0.96717656     0.41100
H2183       H  0.43091104  0.70506773  0.90107455     0.40700
H2184       H  0.45706135  0.70689639  0.90180625     0.35600
C2185       C  0.62255452  0.04280053  0.28108020    -0.26100
C2186       C  0.62836372  0.04668201  0.30183959    -0.14200
C2187       C  0.62539510  0.06677979  0.31051759     0.36400
C2188       C  0.61666036  0.08261756  0.29822937    -0.25600
C2189       C  0.61130785  0.07886174  0.27727694    -0.14800
C2190       C  0.61442171  0.05882314  0.26853428     0.37500
N2191       N  0.61060014  0.05516066  0.24669485    -0.89100
H2192       H  0.62546529  0.02747475  0.27433129     0.18600
H2193       H  0.61484318  0.09819202  0.30477903     0.18600
N2194       N  0.63243796  0.07185754  0.33116190    -0.88100
H2195       H  0.61378227  0.03957502  0.24275421     0.36000
H2196       H  0.62109355  0.06439536  0.23820354     0.41100
H2197       H  0.64852666  0.06898588  0.33188244     0.40700
H2198       H  0.62493457  0.06193886  0.34174908     0.35600
C2199       C  0.55314428  0.13085263  0.23743998    -0.26100
C2200       C  0.57219266  0.12486303  0.22843412    -0.14200
C2201       C  0.57557126  0.12794572  0.20685407     0.36400
C2202       C  0.55990598  0.13716897  0.19471676    -0.25600
C2203       C  0.54110206  0.14386167  0.20383418    -0.14800
C2204       C  0.53764814  0.14048900  0.22541797     0.37500
N2205       N  0.51838870  0.14615844  0.23538689    -0.89100
H2206       H  0.55047670  0.12838774  0.25399930     0.18600
H2207       H  0.56260215  0.13953573  0.17815346     0.18600
N2208       N  0.59460934  0.12159441  0.19685949    -0.88100
H2209       H  0.50613725  0.13876752  0.22746181     0.36000
H2210       H  0.51641606  0.16236883  0.23430005     0.41100
H2211       H  0.60702826  0.12984305  0.20354433     0.40700
H2212       H  0.59686196  0.10561053  0.19962543     0.35600
C2213       C  0.54308525  0.06103187  0.26544885    -0.26100
C2214       C  0.54078854  0.05016309  0.24639377    -0.14200
C2215       C  0.55392024  0.05567829  0.22941919     0.36400
C2216       C  0.56844838  0.07207520  0.23180129    -0.25600
C2217       C  0.57089834  0.08255291  0.25091552    -0.14800
C2218       C  0.55785526  0.07712737  0.26791401     0.37500
N2219       N  0.55893010  0.08772775  0.28774031    -0.89100
H2220       H  0.53313308  0.05717931  0.27860921     0.18600
H2221       H  0.57862298  0.07621706  0.21891642     0.18600
N2222       N  0.55295741  0.04432053  0.21001592    -0.88100
H2223       H  0.54440423  0.09480062  0.29036410     0.36000
H2224       H  0.56981549  0.09988610  0.28746172     0.41100
H2225       H  0.55798818  0.02901727  0.21298834     0.40700
H2226       H  0.56345157  0.05057744  0.19914202     0.35600
C2227       C  0.37269894  0.05205218  0.29466820    -0.26100
C2228       C  0.35519685  0.04102344  0.28716301    -0.14200
C2229       C  0.34723866  0.04598949  0.26707697     0.36400
C2230       C  0.35642974  0.06224854  0.25555705    -0.25600
C2231       C  0.37373987  0.07328433  0.26317415    -0.14800
C2232       C  0.38194311  0.06823620  0.28308685     0.37500
N2233       N  0.39906395  0.07949775  0.29240361    -0.89100
H2234       H  0.37900741  0.04849263  0.30997738     0.18600
H2235       H  0.35017439  0.06625719  0.24032534     0.18600
N2236       N  0.32996735  0.03454354  0.25828876    -0.88100
H2237       H  0.39352567  0.08643590  0.30615740     0.36000
H2238       H  0.40413638  0.09179047  0.28297167     0.41100
H2239       H  0.33511671  0.01924471  0.25546089     0.40700
H2240       H  0.32570094  0.04069481  0.24375947     0.35600
C2241       C  0.43091790  0.13640281  0.23167105    -0.26100
C2242       C  0.41986543  0.12047158  0.22150991    -0.14200
C2243       C  0.42516756  0.11507119  0.20081912     0.36400
C2244       C  0.44151464  0.12559362  0.19074029    -0.25600
C2245       C  0.45258810  0.14186807  0.20071812    -0.14800
C2246       C  0.44708843  0.14717541  0.22161910     0.37500
N2247       N  0.45749713  0.16332025  0.23318872    -0.89100
H2248       H  0.42669177  0.14074777  0.24751725     0.18600
H2249       H  0.44519976  0.12130050  0.17475860     0.18600
N2250       N  0.41381314  0.09941361  0.18948909    -0.88100
H2251       H  0.45491729  0.17770492  0.22585674     0.36000
H2252       H  0.47350477  0.16005466  0.23356623     0.41100
H2253       H  0.39802636  0.10368978  0.18920066     0.40700
H2254       H  0.41521330  0.08524151  0.19748931     0.35600
C2255       C  0.43159718  0.04250472  0.23453249    -0.26100
C2256       C  0.45120096  0.04823932  0.24253193    -0.14200
C2257       C  0.45409119  0.06867857  0.25068717     0.36400
C2258       C  0.43727030  0.08279306  0.25058624    -0.25600
C2259       C  0.41766873  0.07708900  0.24255408    -0.14800
C2260       C  0.41477797  0.05672034  0.23446805     0.37500
N2261       N  0.39486638  0.05065080  0.22600783    -0.89100
H2262       H  0.42940947  0.02681972  0.22838251     0.18600
H2263       H  0.43950865  0.09843627  0.25677702     0.18600
N2264       N  0.47391197  0.07593217  0.25848014    -0.88100
H2265       H  0.39530923  0.03515893  0.22069886     0.36000
H2266       H  0.39185075  0.06003981  0.21297965     0.41100
H2267       H  0.48565038  0.06469494  0.25681728     0.40700
H2268       H  0.47220212  0.07878874  0.27449136     0.35600
C2269       C  0.61687027  0.92413983  0.29175685    -0.26100
C2270       C  0.61257554  0.92809644  0.27063854    -0.14200
C2271       C  0.61778008  0.94770214  0.26194932     0.36400
C2272       C  0.62721160  0.96301545  0.27470217    -0.25600
C2273       C  0.63154443  0.95898531  0.29586213    -0.14800
C2274       C  0.62614998  0.93934702  0.30444268     0.37500
N2275       N  0.63084198  0.93403303  0.32568595    -0.89100
H2276       H  0.61326013  0.90893259  0.29836220     0.18600
H2277       H  0.63151188  0.97802528  0.26805939     0.18600
N2278       N  0.61421916  0.95167747  0.24012290    -0.88100
H2279       H  0.62260449  0.94414652  0.33557156     0.36000
H2280       H  0.64687308  0.93608878  0.32816991     0.41100
H2281       H  0.62369868  0.94141358  0.23157448     0.40700
H2282       H  0.61895324  0.96685320  0.23621020     0.35600
C2283       C  0.57337846  0.88258080  0.20126328    -0.26100
C2284       C  0.56936985  0.88394665  0.22278011    -0.14200
C2285       C  0.55110092  0.87478376  0.23100165     0.36400
C2286       C  0.53753904  0.86397597  0.21773308    -0.25600
C2287       C  0.54168663  0.86210877  0.19622883    -0.14800
C2288       C  0.55956732  0.87195848  0.18777751     0.37500
N2289       N  0.56430416  0.87014571  0.16587891    -0.89100
H2290       H  0.58765734  0.88931934  0.19509722     0.18600
H2291       H  0.52375813  0.85667714  0.22438363     0.18600
N2292       N  0.54631701  0.87554903  0.25285732    -0.88100
H2293       H  0.57878606  0.87697126  0.16257954     0.36000
H2294       H  0.55319893  0.87896496  0.15773647     0.41100
H2295       H  0.54467684  0.89123026  0.25716811     0.40700
H2296       H  0.55881025  0.86908493  0.26118292     0.35600
C2297       C  0.56728923  0.93699707  0.22654355    -0.26100
C2298       C  0.57107074  0.92672546  0.24551882    -0.14200
C2299       C  0.55951857  0.93262171  0.26346894     0.36400
C2300       C  0.54499506  0.94900924  0.26206132    -0.25600
C2301       C  0.54119535  0.95951708  0.24310794    -0.14800
C2302       C  0.55258405  0.95332188  0.22515449     0.37500
N2303       N  0.54957401  0.96367240  0.20553478    -0.89100
H2304       H  0.57611179  0.93248324  0.21278434     0.18600
H2305       H  0.53630527  0.95324102  0.27599177     0.18600
N2306       N  0.56173873  0.92212232  0.28323768    -0.88100
H2307       H  0.54508235  0.95243607  0.19450804     0.36000
H2308       H  0.56393201  0.96993451  0.20081997     0.41100
H2309       H  0.57170345  0.90924244  0.28212038     0.40700
H2310       H  0.54711293  0.91601029  0.28728479     0.35600
C2311       C  0.37659731  0.94753684  0.25279293    -0.26100
C2312       C  0.37988661  0.92676562  0.25907706    -0.14200
C2313       C  0.37443852  0.92057371  0.27964484     0.36400
C2314       C  0.36451314  0.93494132  0.29288162    -0.25600
C2315       C  0.36012996  0.95529546  0.28612869    -0.14800
C2316       C  0.36685011  0.96197042  0.26623808     0.37500
N2317       N  0.36357061  0.98328987  0.25977727    -0.89100
H2318       H  0.38101509  0.95228348  0.23713612     0.18600
H2319       H  0.35990113  0.93008413  0.30845262     0.18600
N2320       N  0.37906209  0.90009272  0.28776781    -0.88100
H2321       H  0.36942210  0.98564132  0.24469404     0.36000
H2322       H  0.37233708  0.99291495  0.26970695     0.41100
H2323       H  0.38817438  0.89127172  0.27747408     0.40700
H2324       H  0.36488122  0.89220796  0.28982601     0.35600
C2325       C  0.44111385  0.88225457  0.21960139    -0.26100
C2326       C  0.42290631  0.88663599  0.20825359    -0.14200
C2327       C  0.42174931  0.88137944  0.18683524     0.36400
C2328       C  0.43874482  0.87117570  0.17735751    -0.25600
C2329       C  0.45636554  0.86563023  0.18909888    -0.14800
C2330       C  0.45788771  0.87168040  0.21022902     0.37500
N2331       N  0.47636173  0.86682160  0.22207775    -0.89100
H2332       H  0.44189643  0.88636834  0.23603044     0.18600
H2333       H  0.43782904  0.86660025  0.16105389     0.18600
N2334       N  0.40350341  0.88659922  0.17477948    -0.88100
H2335       H  0.47490851  0.87224545  0.23744903     0.36000
H2336       H  0.48878669  0.87508963  0.21539371     0.41100
H2337       H  0.39119896  0.87719059  0.17996160     0.40700
H2338       H  0.40578342  0.88275257  0.15904145     0.35600
C2339       C  0.42895605  0.93301193  0.25418449    -0.26100
C2340       C  0.42145584  0.92753129  0.23431843    -0.14200
C2341       C  0.42979237  0.93766058  0.21665858     0.36400
C2342       C  0.44523912  0.95308472  0.21909815    -0.25600
C2343       C  0.45251448  0.95908767  0.23900599    -0.14800
C2344       C  0.44412741  0.94880863  0.25682659     0.37500
N2345       N  0.45089992  0.95430454  0.27754972    -0.89100
H2346       H  0.42273902  0.92501414  0.26774982     0.18600
H2347       H  0.45130622  0.96061955  0.20519549     0.18600
N2348       N  0.42218325  0.93276018  0.19618602    -0.88100
H2349       H  0.44414978  0.94436328  0.28864935     0.36000
H2350       H  0.44512046  0.96928906  0.28078448     0.41100
H2351       H  0.43487354  0.92780869  0.18709926     0.40700
H2352       H  0.41626156  0.94649054  0.18955553     0.35600
C2353       C  0.31191879  0.05251787  0.62579505    -0.26100
C2354       C  0.30043554  0.03612578  0.63475627    -0.14200
C2355       C  0.27871846  0.03474113  0.63113075     0.36400
C2356       C  0.26872181  0.05047913  0.61954826    -0.25600
C2357       C  0.28000018  0.06752048  0.61165764    -0.14800
C2358       C  0.30198262  0.06832776  0.61432722     0.37500
N2359       N  0.31464986  0.08495954  0.60595337    -0.89100
H2360       H  0.32866406  0.05342044  0.62828484     0.18600
H2361       H  0.25191762  0.04991229  0.61737970     0.18600
N2362       N  0.26692292  0.01742284  0.63931929    -0.88100
H2363       H  0.32540863  0.07819465  0.59563192     0.36000
H2364       H  0.30584521  0.09539426  0.59702986     0.41100
H2365       H  0.27235202  0.00382365  0.63195951     0.40700
H2366       H  0.25111428  0.01885450  0.63539200     0.35600
C2367       C  0.21360394  0.10414078  0.56489019    -0.26100
C2368       C  0.23398632  0.11175682  0.56720576    -0.14200
C2369       C  0.24088235  0.12852936  0.55477129     0.36400
C2370       C  0.22682040  0.13823305  0.54107048    -0.25600
C2371       C  0.20602600  0.13124070  0.53916937    -0.14800
C2372       C  0.19963457  0.11334962  0.55062057     0.37500
N2373       N  0.17894516  0.10487796  0.54824090    -0.89100
H2374       H  0.20830047  0.09147515  0.57477447     0.18600
H2375       H  0.23219701  0.15144021  0.53191122     0.18600
N2376       N  0.26207721  0.13587676  0.55646640    -0.88100
H2377       H  0.17650344  0.09254990  0.55871095     0.36000
H2378       H  0.17809704  0.09825421  0.53330034     0.41100
H2379       H  0.27189831  0.12372008  0.55155426     0.40700
H2380       H  0.26468419  0.14842575  0.54629983     0.35600
C2381       C  0.27020866  0.04761019  0.54320044    -0.26100
C2382       C  0.25201297  0.03541605  0.54092665    -0.14200
C2383       C  0.23466229  0.03965853  0.55412269     0.36400
C2384       C  0.23616005  0.05568984  0.56928318    -0.25600
C2385       C  0.25424249  0.06795252  0.57106646    -0.14800
C2386       C  0.27135441  0.06379397  0.55798590     0.37500
N2387       N  0.28993134  0.07617400  0.55963650    -0.89100
H2388       H  0.28364749  0.04477358  0.53326000     0.30600
H2389       H  0.22323702  0.05860294  0.57982503     0.18600
N2390       N  0.21583056  0.02746943  0.55253911    -0.88100
H2391       H  0.29271625  0.08313762  0.54512730     0.36000
H2392       H  0.30242180  0.06610253  0.56289326     0.41100
H2393       H  0.20852958  0.03157951  0.53851911     0.40700
H2394       H  0.20534068  0.03158329  0.56441584     0.35600
C2395       C  0.29648819  0.06489979  0.38545709    -0.26100
C2396       C  0.27547612  0.06851036  0.38051677    -0.14200
C2397       C  0.26577470  0.05649625  0.36481752     0.36400
C2398       C  0.27728972  0.04144525  0.35399508    -0.25600
C2399       C  0.29861001  0.03810683  0.35824324    -0.14800
C2400       C  0.30826476  0.04981520  0.37447097     0.37500
N2401       N  0.32997999  0.04681396  0.37946348    -0.89100
H2402       H  0.30391155  0.07440633  0.39737832     0.18600
H2403       H  0.26943848  0.03249611  0.34191915     0.18600
N2404       N  0.24424328  0.05943729  0.35938026    -0.88100
H2405       H  0.33427171  0.05604664  0.39228629     0.36000
H2406       H  0.33873855  0.05223977  0.36677284     0.41100
H2407       H  0.24211677  0.07488409  0.35440851     0.40700
H2408       H  0.23518972  0.05698817  0.37274529     0.35600
C2409       C  0.20745275  0.11190120  0.42273716    -0.26100
C2410       C  0.22902047  0.11054734  0.42667000    -0.14200
C2411       C  0.23715532  0.11875157  0.44545361     0.36400
C2412       C  0.22374125  0.12851446  0.45967075    -0.25600
C2413       C  0.20225396  0.13019594  0.45560938    -0.14800
C2414       C  0.19395471  0.12147298  0.43721022     0.37500
N2415       N  0.17209172  0.12328087  0.43270735    -0.89100
H2416       H  0.20118407  0.10612860  0.40808009     0.18600
H2417       H  0.23020371  0.13517128  0.47387467     0.18600
N2418       N  0.25906271  0.11827683  0.45004526    -0.88100
H2419       H  0.16611383  0.10818035  0.43056318     0.36000
H2420       H  0.17045188  0.13140653  0.41862359     0.41100
H2421       H  0.26714569  0.12563235  0.43789302     0.40700
H2422       H  0.26383128  0.10267008  0.45080669     0.35600
C2423       C  0.27154515  0.06436133  0.43443507    -0.26100
C2424       C  0.25330627  0.06849713  0.42306651    -0.14200
C2425       C  0.23540973  0.05597952  0.42642861     0.36400
C2426       C  0.23618818  0.03981947  0.44124807    -0.25600
C2427       C  0.25441646  0.03565618  0.45287883    -0.14800
C2428       C  0.27234847  0.04825653  0.44939451     0.37500
N2429       N  0.29111046  0.04521929  0.46139743    -0.89100
H2430       H  0.28514885  0.07411637  0.43182236     0.18600
H2431       H  0.22234110  0.03031210  0.44352595     0.18600
N2432       N  0.21643305  0.05873117  0.41473045    -0.88100
H2433       H  0.30192516  0.05711436  0.45832086     0.36000
H2434       H  0.29805171  0.03133181  0.45618590     0.41100
H2435       H  0.21792847  0.07040034  0.40344846     0.40700
H2436       H  0.20483002  0.06363252  0.42517803     0.35600
C2437       C  0.26311174  0.93040809  0.63364743    -0.26100
C2438       C  0.27247499  0.91914987  0.61740685    -0.14200
C2439       C  0.29326260  0.92345255  0.61164857     0.36400
C2440       C  0.30445215  0.93899056  0.62253957    -0.25600
C2441       C  0.29531679  0.95005767  0.63928712    -0.14800
C2442       C  0.27412567  0.94596552  0.64454416     0.37500
N2443       N  0.26381171  0.95736314  0.66101117    -0.89100
H2444       H  0.24714614  0.92676751  0.63804238     0.18600
H2445       H  0.32057186  0.94200369  0.61829150     0.18600
N2446       N  0.30311436  0.91155505  0.59527128    -0.88100
H2447       H  0.24864915  0.95172978  0.66338449     0.36000
H2448       H  0.26221155  0.97288016  0.65603215     0.41100
H2449       H  0.30407004  0.89598715  0.60024310     0.40700
H2450       H  0.31847817  0.91665501  0.59293282     0.35600
C2451       C  0.21634130  0.88061908  0.56189745    -0.26100
C2452       C  0.23386175  0.87044442  0.57018853    -0.14200
C2453       C  0.23959288  0.85056513  0.56253899     0.36400
C2454       C  0.22739687  0.84102224  0.54701114    -0.25600
C2455       C  0.20943198  0.85082207  0.53885951    -0.14800
C2456       C  0.20404284  0.87109925  0.54644545     0.37500
N2457       N  0.18619686  0.88244813  0.53906394    -0.89100
H2458       H  0.21174665  0.89580212  0.56797985     0.18600
H2459       H  0.23199134  0.82567947  0.54139210     0.18600
N2460       N  0.25770429  0.84002569  0.57074215    -0.88100
H2461       H  0.17271357  0.87373075  0.54218933     0.36000
H2462       H  0.18771978  0.88477540  0.52297107     0.41100
H2463       H  0.27086065  0.84881345  0.56663917     0.40700
H2464       H  0.25957024  0.82533691  0.56373437     0.35600
C2465       C  0.24148661  0.93288055  0.57582457    -0.26100
C2466       C  0.25354278  0.91470982  0.57308574    -0.14200
C2467       C  0.26499993  0.91200339  0.55432518     0.36400
C2468       C  0.26382781  0.92737686  0.53871274    -0.25600
C2469       C  0.25162798  0.94545819  0.54136005    -0.14800
C2470       C  0.24024723  0.94823764  0.56008094     0.37500
N2471       N  0.22813548  0.96694643  0.56336020    -0.89100
H2472       H  0.23282344  0.93487989  0.59025176     0.18600
H2473       H  0.27268959  0.92525409  0.52440566     0.18600
N2474       N  0.27822457  0.89413462  0.55073847    -0.88100
H2475       H  0.22167405  0.96704102  0.57837818     0.36000
H2476       H  0.21552973  0.96654801  0.55296790     0.41100
H2477       H  0.27911892  0.88472979  0.56401181     0.40700
H2478       H  0.29340822  0.89967717  0.54827850     0.35600
C2479       C  0.31354121  0.93413233  0.36537134    -0.26100
C2480       C  0.30206701  0.95120473  0.35771973    -0.14200
C2481       C  0.28039831  0.95255987  0.36190919     0.36400
C2482       C  0.27040385  0.93606587  0.37244396    -0.25600
C2483       C  0.28166575  0.91836424  0.37876277    -0.14800
C2484       C  0.30342586  0.91759788  0.37567593     0.37500
N2485       N  0.31520400  0.89990323  0.38278481    -0.89100
H2486       H  0.33022499  0.93317069  0.36252491     0.18600
H2487       H  0.25364953  0.93659750  0.37492296     0.18600
N2488       N  0.26863706  0.97056969  0.35525570    -0.88100
H2489       H  0.32283324  0.89330576  0.36988421     0.36000
H2490       H  0.32659422  0.90530201  0.39318931     0.41100
H2491       H  0.27440684  0.98357122  0.36337951     0.40700
H2492       H  0.25290815  0.96905745  0.35948138     0.35600
C2493       C  0.24379314  0.86837579  0.43990488    -0.26100
C2494       C  0.23516238  0.87164251  0.42003388    -0.14200
C2495       C  0.21445644  0.86512006  0.41592912     0.36400
C2496       C  0.20278442  0.85561064  0.43173669    -0.25600
C2497       C  0.21164551  0.85163011  0.45133376    -0.14800
C2498       C  0.23233989  0.85804587  0.45556674     0.37500
N2499       N  0.24149930  0.85432180  0.47575608    -0.89100
H2500       H  0.25977416  0.87314471  0.44291700     0.18600
H2501       H  0.18692555  0.85057975  0.42845905     0.18600
N2502       N  0.20492671  0.86784130  0.39585201    -0.88100
H2503       H  0.25648414  0.86085575  0.47653177     0.36000
H2504       H  0.24346138  0.83815957  0.47741949     0.41100
H2505       H  0.21354763  0.85950531  0.38474179     0.40700
H2506       H  0.20534585  0.88373788  0.39200996     0.35600
C2507       C  0.27297998  0.91725470  0.43305673    -0.26100
C2508       C  0.25612812  0.91505303  0.41929886    -0.14200
C2509       C  0.23841993  0.92811931  0.42165562     0.36400
C2510       C  0.23795181  0.94288619  0.43798121    -0.25600
C2511       C  0.25491563  0.94522631  0.45180095    -0.14800
C2512       C  0.27251806  0.93202888  0.44930446     0.37500
N2513       N  0.28978081  0.93314435  0.46352282    -0.89100
H2514       H  0.28649995  0.90716160  0.43127096     0.18600
H2515       H  0.22436334  0.95292010  0.43955553     0.18600
N2516       N  0.22087074  0.92705543  0.40766763    -0.88100
H2517       H  0.30330174  0.93631275  0.45488693     0.36000
H2518       H  0.29157237  0.91844232  0.47049587     0.41100
H2519       H  0.22345492  0.91614535  0.39578761     0.40700
H2520       H  0.21959099  0.94160872  0.40028529     0.35600
C2521       C  0.07924455  0.69751324  0.61159152    -0.26100
C2522       C  0.07660023  0.71907298  0.60814851    -0.14200
C2523       C  0.05764798  0.72886672  0.61409075     0.36400
C2524       C  0.04216954  0.71695260  0.62392513    -0.25600
C2525       C  0.04511317  0.69559399  0.62813095    -0.14800
C2526       C  0.06367034  0.68564712  0.62138415     0.37500
N2527       N  0.06760274  0.66390038  0.62527735    -0.89100
H2528       H  0.09384609  0.69001002  0.60728452     0.18600
H2529       H  0.02792415  0.72466205  0.62900626     0.18600
N2530       N  0.05399504  0.75097613  0.61177563    -0.88100
H2531       H  0.05612124  0.65507585  0.61767990     0.36000
H2532       H  0.06647768  0.66122711  0.64136033     0.41100
H2533       H  0.06706579  0.75886362  0.60607022     0.40700
H2534       H  0.04202219  0.75286713  0.60081534     0.35600
C2535       C  0.13007371  0.75508137  0.54882995    -0.26100
C2536       C  0.12377763  0.76522661  0.56719626    -0.14200
C2537       C  0.12685728  0.78700644  0.56938440     0.36400
C2538       C  0.13684268  0.79810812  0.55344150    -0.25600
C2539       C  0.14429793  0.78776798  0.53556891    -0.14800
C2540       C  0.14054345  0.76609141  0.53299525     0.37500
N2541       N  0.14688507  0.75546322  0.51417919    -0.89100
H2542       H  0.12737804  0.73839137  0.54715671     0.18600
H2543       H  0.13945559  0.81478419  0.55535040     0.18600
N2544       N  0.11992877  0.79821144  0.58754292    -0.88100
H2545       H  0.14139881  0.74002435  0.51415229     0.36000
H2546       H  0.16318557  0.75441619  0.51428681     0.41100
H2547       H  0.12757172  0.79218048  0.60063476     0.40700
H2548       H  0.10386124  0.79576469  0.58934367     0.35600
C2549       C  0.07265321  0.76253541  0.56172010    -0.26100
C2550       C  0.08156617  0.74300128  0.56619574    -0.14200
C2551       C  0.07574149  0.72540665  0.55409368     0.36400
C2552       C  0.06045079  0.72770397  0.53850287    -0.25600
C2553       C  0.05122211  0.74727942  0.53409410    -0.14800
C2554       C  0.05770670  0.76498928  0.54581334     0.37500
N2555       N  0.04887716  0.78534407  0.54197351    -0.89100
H2556       H  0.07734626  0.77597857  0.57090948     0.18600
H2557       H  0.05598191  0.71398353  0.52956497     0.18600
N2558       N  0.08520712  0.70515451  0.55686258    -0.88100
H2559       H  0.05416694  0.79618750  0.55304711     0.36000
H2560       H  0.05462180  0.79048146  0.52756168     0.41100
H2561       H  0.09713826  0.70564704  0.56796876     0.40700
H2562       H  0.09245626  0.70110975  0.54276841     0.35600
C2563       C  0.06068921  0.72954499  0.36864771    -0.26100
C2564       C  0.07918131  0.71937304  0.37446666    -0.14200
C2565       C  0.08068740  0.69745712  0.37260390     0.36400
C2566       C  0.06373529  0.68600796  0.36467698    -0.25600
C2567       C  0.04554266  0.69624023  0.35793681    -0.14800
C2568       C  0.04390231  0.71823609  0.36004936     0.37500
N2569       N  0.02509729  0.72894295  0.35388872    -0.89100
H2570       H  0.05964496  0.74643062  0.37016763     0.18600
H2571       H  0.06505581  0.66913881  0.36314195     0.18600
N2572       N  0.09941305  0.68681269  0.37877355    -0.88100
H2573       H  0.02591682  0.74480471  0.35792990     0.36000
H2574       H  0.02425574  0.72847676  0.33758008     0.41100
H2575       H  0.09548180  0.67583842  0.39023527     0.40700
H2576       H  0.10515816  0.67864282  0.36579795     0.35600
C2577       C  0.11974158  0.78511941  0.42136510    -0.26100
C2578       C  0.12610578  0.76451745  0.41720509    -0.14200
C2579       C  0.14265689  0.75581296  0.42871501     0.36400
C2580       C  0.15283866  0.76781779  0.44397515    -0.25600
C2581       C  0.14678880  0.78860798  0.44814858    -0.14800
C2582       C  0.12985923  0.79721986  0.43675125     0.37500
N2583       N  0.12315619  0.81834338  0.44031502    -0.89100
H2584       H  0.10734790  0.79211437  0.41219898     0.18600
H2585       H  0.16557179  0.76070745  0.45259655     0.18600
N2586       N  0.14918516  0.73467782  0.42487713    -0.88100
H2587       H  0.10736271  0.81801954  0.44455184     0.36000
H2588       H  0.12445088  0.82655562  0.42624043     0.41100
H2589       H  0.14779423  0.72631244  0.43885141     0.40700
H2590       H  0.16497973  0.73491182  0.42065077     0.35600
C2591       C  0.06051402  0.72910206  0.44194620    -0.26100
C2592       C  0.04926516  0.74787435  0.44459961    -0.14200
C2593       C  0.05443057  0.76526428  0.43173637     0.36400
C2594       C  0.07036929  0.76339603  0.41685979    -0.25600
C2595       C  0.08192870  0.74490776  0.41482159    -0.14800
C2596       C  0.07698883  0.72753437  0.42757635     0.37500
N2597       N  0.08880232  0.70838981  0.42698404    -0.89100
H2598       H  0.05702679  0.71565419  0.45166532     0.18600
H2599       H  0.07378177  0.77651125  0.40669823     0.18600
N2600       N  0.04371328  0.78493615  0.43306796    -0.88100
H2601       H  0.07902371  0.69665757  0.42110965     0.36000
H2602       H  0.10168437  0.70951433  0.41703483     0.41100
H2603       H  0.04651266  0.79158833  0.44774083     0.40700
H2604       H  0.02769094  0.78236945  0.43110648     0.35600
C2605       C  0.92535848  0.70659486  0.61198237    -0.26100
C2606       C  0.93028810  0.72779950  0.60882957    -0.14200
C2607       C  0.94989371  0.73541944  0.61516521     0.36400
C2608       C  0.96415494  0.72187583  0.62485506    -0.25600
C2609       C  0.95918648  0.70072680  0.62832868    -0.14800
C2610       C  0.93967743  0.69294397  0.62147149     0.37500
N2611       N  0.93359352  0.67162984  0.62491516    -0.89100
H2612       H  0.91012719  0.70073721  0.60739784     0.18600
H2613       H  0.97901867  0.72805939  0.63018974     0.18600
N2614       N  0.95492022  0.75715145  0.61279454    -0.88100
H2615       H  0.93444158  0.66852762  0.64093527     0.36000
H2616       H  0.94417025  0.66185761  0.61712503     0.41100
H2617       H  0.96856529  0.75822736  0.60385309     0.40700
H2618       H  0.95807333  0.76333439  0.62761504     0.35600
C2619       C  0.88261667  0.76940231  0.54812852    -0.26100
C2620       C  0.89042589  0.77944070  0.56595995    -0.14200
C2621       C  0.88846010  0.80141230  0.56784422     0.36400
C2622       C  0.87820807  0.81283237  0.55217315    -0.25600
C2623       C  0.86920123  0.80261636  0.53493858    -0.14800
C2624       C  0.87186469  0.78072797  0.53265138     0.37500
N2625       N  0.86338844  0.77006297  0.51474323    -0.89100
H2626       H  0.88409479  0.75253279  0.54675890     0.18600
H2627       H  0.87635882  0.82961857  0.55399752     0.18600
N2628       N  0.89641359  0.81242099  0.58567812    -0.88100
H2629       H  0.86649516  0.75399356  0.51553452     0.36000
H2630       H  0.87122339  0.77567350  0.50154287     0.41100
H2631       H  0.91241538  0.80932552  0.58688476     0.40700
H2632       H  0.88903496  0.80666908  0.59907442     0.35600
C2633       C  0.94252659  0.77158388  0.56331385    -0.26100
C2634       C  0.93108063  0.75343164  0.56774134    -0.14200
C2635       C  0.93542028  0.73491745  0.55667767     0.36400
C2636       C  0.95093817  0.73482176  0.54118280    -0.25600
C2637       C  0.96249607  0.75298160  0.53651900    -0.14800
C2638       C  0.95842512  0.77155290  0.54807880     0.37500
N2639       N  0.97052648  0.79021192  0.54460743    -0.89100
H2640       H  0.93929062  0.78569404  0.57215671     0.18600
H2641       H  0.95373239  0.72043883  0.53260172     0.18600
N2642       N  0.92369695  0.71628469  0.56081008    -0.88100
H2643       H  0.96519612  0.80246823  0.55409788     0.36000
H2644       H  0.98585422  0.78704708  0.54933754     0.41100
H2645       H  0.91636728  0.71167866  0.54694191     0.40700
H2646       H  0.93422815  0.70449521  0.56506455     0.35600
C2647       C  0.92311816  0.70341850  0.37690542    -0.26100
C2648       C  0.92680720  0.72504352  0.37804293    -0.14200
C2649       C  0.94608547  0.73314410  0.37127009     0.36400
C2650       C  0.96115416  0.71962736  0.36277754    -0.25600
C2651       C  0.95737651  0.69803227  0.36124812    -0.14800
C2652       C  0.93837437  0.68981264  0.36876070     0.37500
N2653       N  0.93413295  0.66784715  0.36723883    -0.89100
H2654       H  0.90823273  0.69713892  0.38203916     0.18600
H2655       H  0.97575467  0.72607331  0.35705434     0.18600
N2656       N  0.95006194  0.75520038  0.37221225    -0.88100
H2657       H  0.93107935  0.66223863  0.38228355     0.36000
H2658       H  0.92055875  0.66593496  0.35833055     0.41100
H2659       H  0.95313111  0.76046338  0.35704472     0.40700
H2660       H  0.96353593  0.75753058  0.38116826     0.35600
C2661       C  0.88658913  0.79829352  0.41737127    -0.26100
C2662       C  0.88510784  0.77643115  0.41891375    -0.14200
C2663       C  0.87494014  0.76741982  0.43611219     0.36400
C2664       C  0.86546465  0.78030857  0.45104896    -0.25600
C2665       C  0.86611710  0.80224134  0.44929686    -0.14800
C2666       C  0.87747971  0.81132164  0.43256450     0.37500
N2667       N  0.87939834  0.83354436  0.43014250    -0.89100
H2668       H  0.89455425  0.80524379  0.40412613     0.18600
H2669       H  0.85722946  0.77303589  0.46395149     0.18600
N2670       N  0.87363523  0.74511435  0.43808879    -0.88100
H2671       H  0.88735204  0.83956088  0.44311034     0.36000
H2672       H  0.86442856  0.84008753  0.42959277     0.41100
H2673       H  0.85783215  0.74095653  0.43860651     0.40700
H2674       H  0.88043981  0.74090637  0.45234228     0.35600
C2675       C  0.93896397  0.76910170  0.41965953    -0.26100
C2676       C  0.92602073  0.75151095  0.41806904    -0.14200
C2677       C  0.92942733  0.73420787  0.43137133     0.36400
C2678       C  0.94588024  0.73490166  0.44580191    -0.25600
C2679       C  0.95916039  0.75243442  0.44736480    -0.14800
C2680       C  0.95558399  0.76970958  0.43386342     0.37500
N2681       N  0.96890247  0.78773833  0.43353496    -0.89100
H2682       H  0.93642821  0.78225135  0.40926426     0.18600
H2683       H  0.94813537  0.72157212  0.45603271     0.18600
N2684       N  0.91625419  0.71596367  0.43107949    -0.88100
H2685       H  0.98428302  0.78282753  0.43088785     0.36000
H2686       H  0.96793566  0.79537910  0.44795609     0.41100
H2687       H  0.90388255  0.71758179  0.42058258     0.40700
H2688       H  0.92531998  0.70333496  0.42592092     0.35600
C2689       C  0.72504178  0.04310270  0.64216188    -0.26100
C2690       C  0.70443709  0.03888324  0.63564575    -0.14200
C2691       C  0.69621076  0.04997236  0.61829963     0.36400
C2692       C  0.70827371  0.06589640  0.60899357    -0.25600
C2693       C  0.72822944  0.07076316  0.61658119    -0.14800
C2694       C  0.73684811  0.05892057  0.63297156     0.37500
N2695       N  0.75752067  0.06275569  0.64072682    -0.89100
H2696       H  0.73200110  0.03440884  0.65492789     0.18600
H2697       H  0.70186320  0.07500464  0.59622039     0.18600
N2698       N  0.67557426  0.04557692  0.61055666    -0.88100
H2699       H  0.75822316  0.07803247  0.64656466     0.36000
H2700       H  0.76805170  0.06143511  0.62829036     0.41100
H2701       H  0.67596956  0.03065696  0.60379147     0.40700
H2702       H  0.67161981  0.05593697  0.59853791     0.35600
C2703       C  0.75967522  0.13763310  0.56132725    -0.26100
C2704       C  0.76770436  0.11968604  0.57087984    -0.14200
C2705       C  0.78730746  0.11178964  0.56473056     0.36400
C2706       C  0.79863009  0.12219208  0.54901106    -0.25600
C2707       C  0.79080640  0.14047428  0.53948570    -0.14800
C2708       C  0.77076796  0.14797793  0.54549145     0.37500
N2709       N  0.76166316  0.16605885  0.53565191    -0.89100
H2710       H  0.74458339  0.14358796  0.56629270     0.18600
H2711       H  0.81385803  0.11622331  0.54456236     0.18600
N2712       N  0.79591575  0.09367823  0.57492777    -0.88100
H2713       H  0.74737325  0.16994231  0.54260888     0.36000
H2714       H  0.75826979  0.16195016  0.52018460     0.41100
H2715       H  0.79848417  0.09758275  0.59059838     0.40700
H2716       H  0.81050271  0.08985677  0.56857604     0.35600
C2717       C  0.76053646  0.05764920  0.57600636    -0.26100
C2718       C  0.74802415  0.07546161  0.57326772    -0.14200
C2719       C  0.73559038  0.07730380  0.55506903     0.36400
C2720       C  0.73643541  0.06146383  0.53984755    -0.25600
C2721       C  0.74936320  0.04386739  0.54237590    -0.14800
C2722       C  0.76149694  0.04187857  0.56067612     0.37500
N2723       N  0.77409101  0.02351376  0.56399866    -0.89100
H2724       H  0.76975978  0.05623697  0.59011894     0.18600
H2725       H  0.72695682  0.06294521  0.52587541     0.18600
N2726       N  0.72179272  0.09476517  0.55165569    -0.88100
H2727       H  0.78091109  0.02389314  0.57885376     0.36000
H2728       H  0.78644087  0.02394513  0.55330892     0.41100
H2729       H  0.72193632  0.10514297  0.56426777     0.40700
H2730       H  0.70655765  0.08888371  0.55081188     0.35600
C2731       C  0.72665361  0.05613371  0.37877004    -0.26100
C2732       C  0.71786941  0.07587974  0.38253746    -0.14200
C2733       C  0.69679513  0.07976430  0.37735240     0.36400
C2734       C  0.68499125  0.06383344  0.36789612    -0.25600
C2735       C  0.69423088  0.04458340  0.36285748    -0.14800
C2736       C  0.71514102  0.04056687  0.36866778     0.37500
N2737       N  0.72509598  0.02092882  0.36427282    -0.89100
H2738       H  0.74290710  0.05320279  0.38258757     0.18600
H2739       H  0.66886056  0.06673200  0.36363961     0.18600
N2740       N  0.68772277  0.10002470  0.38119812    -0.88100
H2741       H  0.72549693  0.01877496  0.34808254     0.36000
H2742       H  0.71614846  0.00894866  0.37090558     0.41100
H2743       H  0.68751819  0.10238049  0.39737880     0.40700
H2744       H  0.67216280  0.10038835  0.37619448     0.35600
C2745       C  0.80220420  0.13499671  0.43280619    -0.26100
C2746       C  0.79383323  0.13828657  0.45275725    -0.14200
C2747       C  0.77373788  0.13076406  0.45767106     0.36400
C2748       C  0.76196463  0.12069124  0.44214264    -0.25600
C2749       C  0.76992606  0.11813606  0.42187421    -0.14800
C2750       C  0.79048675  0.12503330  0.41721761     0.37500
N2751       N  0.80010682  0.12196441  0.39711109    -0.89100
H2752       H  0.81779348  0.14060518  0.42919291     0.18600
H2753       H  0.74618630  0.11557626  0.44562885     0.18600
N2754       N  0.76530456  0.13369887  0.47831991    -0.88100
H2755       H  0.80169030  0.13666058  0.39008669     0.36000
H2756       H  0.79098585  0.11270465  0.38724274     0.41100
H2757       H  0.77464762  0.12521086  0.48871431     0.40700
H2758       H  0.75026823  0.12734344  0.47933177     0.35600
C2759       C  0.72720889  0.07224643  0.43417874    -0.26100
C2760       C  0.74507856  0.07656032  0.42219162    -0.14200
C2761       C  0.76358445  0.06499493  0.42590782     0.36400
C2762       C  0.76388613  0.04991096  0.44182379    -0.25600
C2763       C  0.74601240  0.04535330  0.45380239    -0.14800
C2764       C  0.72745969  0.05691521  0.45003883     0.37500
N2765       N  0.70906453  0.05338783  0.46248316    -0.89100
H2766       H  0.71309868  0.08118884  0.43129417     0.18600
H2767       H  0.77821055  0.04120501  0.44436895     0.18600
N2768       N  0.78217147  0.06764579  0.41352050    -0.88100
H2769       H  0.69676667  0.06292997  0.45746311     0.36000
H2770       H  0.71252114  0.05802346  0.47779347     0.41100
H2771       H  0.77960986  0.07776280  0.40101535     0.40700
H2772       H  0.78566124  0.05315750  0.40670484     0.35600
C2773       C  0.73764193  0.94284568  0.61842116    -0.26100
C2774       C  0.72916462  0.92314831  0.61380692    -0.14200
C2775       C  0.70782596  0.91911986  0.61816614     0.36400
C2776       C  0.69590334  0.93447481  0.62837129    -0.25600
C2777       C  0.70483725  0.95356934  0.63443003    -0.14800
C2778       C  0.72572711  0.95811678  0.62884452     0.37500
N2779       N  0.73468026  0.97825544  0.63356099    -0.89100
H2780       H  0.75391300  0.94593926  0.61479128     0.18600
H2781       H  0.67974288  0.93115729  0.63227318     0.18600
N2782       N  0.69782132  0.89966337  0.61274148    -0.88100
H2783       H  0.74966285  0.97949449  0.62711181     0.36000
H2784       H  0.73662575  0.97922611  0.64974793     0.41100
H2785       H  0.70784609  0.88973331  0.60450334     0.40700
H2786       H  0.68560603  0.90315277  0.60245832     0.35600
C2787       C  0.76959928  0.87828405  0.55170785    -0.26100
C2788       C  0.77920685  0.88185899  0.57105611    -0.14200
C2789       C  0.80056791  0.87724399  0.57376085     0.36400
C2790       C  0.81180207  0.86818039  0.55717840    -0.25600
C2791       C  0.80190756  0.86364597  0.53816055    -0.14800
C2792       C  0.78074489  0.86923689  0.53524197     0.37500
N2793       N  0.77031513  0.86613195  0.51567330    -0.89100
H2794       H  0.75319240  0.88198764  0.54958025     0.18600
H2795       H  0.82814132  0.86415397  0.55923786     0.18600
N2796       N  0.81065158  0.88172844  0.59333886    -0.88100
H2797       H  0.77018919  0.85012730  0.51231589     0.36000
H2798       H  0.77880283  0.87388635  0.50402316     0.41100
H2799       H  0.81027635  0.89797118  0.59549438     0.40700
H2800       H  0.82642605  0.87743976  0.59274436     0.35600
C2801       C  0.77219666  0.93468757  0.56888310    -0.26100
C2802       C  0.75425456  0.92271175  0.57270326    -0.14200
C2803       C  0.73617706  0.92626244  0.56085451     0.36400
C2804       C  0.73607433  0.94194669  0.54552413    -0.25600
C2805       C  0.75385162  0.95440254  0.54176261    -0.14800
C2806       C  0.77216576  0.95072257  0.55374640     0.37500
N2807       N  0.79048338  0.96345623  0.55090635    -0.89100
H2808       H  0.78608160  0.93176667  0.57813225     0.18600
H2809       H  0.72197011  0.94426963  0.53643959     0.18600
N2810       N  0.71801017  0.91360023  0.56413136    -0.88100
H2811       H  0.80258429  0.95840276  0.56066215     0.36000
H2812       H  0.78670489  0.97866652  0.55572000     0.41100
H2813       H  0.71437824  0.90614592  0.55003125     0.40700
H2814       H  0.70557471  0.92352079  0.56801566     0.35600
C2815       C  0.73322469  0.94047209  0.35846822    -0.26100
C2816       C  0.72668053  0.92963221  0.37627517    -0.14200
C2817       C  0.70676920  0.93400493  0.38493627     0.36400
C2818       C  0.69381827  0.94888619  0.37521207    -0.25600
C2819       C  0.70013827  0.95944643  0.35695922    -0.14800
C2820       C  0.72048237  0.95554428  0.34891103     0.37500
N2821       N  0.72826789  0.96674253  0.33102381    -0.89100
H2822       H  0.74850992  0.93707634  0.35193818     0.18600
H2823       H  0.67843621  0.95175642  0.38173431     0.18600
N2824       N  0.69866193  0.92297880  0.40276980    -0.88100
H2825       H  0.74303194  0.96122979  0.32662762     0.36000
H2826       H  0.73037144  0.98234151  0.33555770     0.41100
H2827       H  0.70886335  0.91133536  0.40792585     0.40700
H2828       H  0.69712368  0.93380278  0.41496314     0.35600
C2829       C  0.76430966  0.86814418  0.43210301    -0.26100
C2830       C  0.77287450  0.88430628  0.42012197    -0.14200
C2831       C  0.79373062  0.89050013  0.42361246     0.36400
C2832       C  0.80565005  0.88038851  0.43898710    -0.25600
C2833       C  0.79731206  0.86381563  0.45087386    -0.14800
C2834       C  0.77615137  0.85789745  0.44752904     0.37500
N2835       N  0.76669245  0.84145305  0.45961079    -0.89100
H2836       H  0.74830002  0.86336529  0.42922317     0.18600
H2837       H  0.82176194  0.88514781  0.44118028     0.18600
N2838       N  0.80341851  0.90643663  0.41120376    -0.88100
H2839       H  0.75138237  0.83862414  0.45463339     0.36000
H2840       H  0.76557309  0.84679502  0.47501733     0.41100
H2841       H  0.80262218  0.90192062  0.39550438     0.40700
H2842       H  0.79492925  0.92030634  0.41304246     0.35600
C2843       C  0.74253152  0.92119278  0.43867536    -0.26100
C2844       C  0.75007953  0.92688764  0.41889681    -0.14200
C2845       C  0.75766938  0.94732982  0.41570589     0.36400
C2846       C  0.75797079  0.96162716  0.43239439    -0.25600
C2847       C  0.75017980  0.95601586  0.45209815    -0.14800
C2848       C  0.74217749  0.93566746  0.45527366     0.37500
N2849       N  0.73428879  0.92961676  0.47543381    -0.89100
H2850       H  0.73662256  0.90546970  0.44100375     0.18600
H2851       H  0.76400074  0.97729452  0.42986849     0.18600
N2852       N  0.76542915  0.95347502  0.39564201    -0.88100
H2853       H  0.72982315  0.91385410  0.47532527     0.36000
H2854       H  0.72067749  0.93824868  0.47824163     0.41100
H2855       H  0.78096264  0.95824205  0.39741516     0.40700
H2856       H  0.75674989  0.96643189  0.39064359     0.35600
loop_ 
_geom_bond_atom_site_label_1 
_geom_bond_atom_site_label_2 
_geom_bond_distance 
_geom_bond_site_symmetry_2 
_ccdc_geom_bond_type 
N1            C5   1.356       .  A
N1            C2   1.356       .  A
N1         C2844   1.440       .  S
C2            C3   1.382       .  A
C2         C2816   1.479       .  S
C3            C4   1.376       .  A
C3            H6   1.082       .  S
C4            C5   1.381       .  A
C4            H7   1.082       .  S
C5         C2830   1.478       .  S
N8           C12   1.351       .  A
N8            C9   1.352       .  A
N8         C2802   1.439       .  S
C9           C10   1.383       .  A
C9         C2774   1.473       .  S
C10          C11   1.378       .  A
C10          H13   1.082       .  S
C11          C12   1.382       .  A
C11          H14   1.082       .  S
C12        C2788   1.470       .  S
N15          C19   1.353       .  A
N15          C16   1.355       .  A
N15        C2760   1.445       .  S
C16          C17   1.383       .  A
C16        C2749   1.474       .  S
C17          C18   1.374       .  A
C17          H20   1.082       .  S
C18          C19   1.382       .  A
C18          H21   1.082       .  S
C19        C2732   1.470       .  S
N22          C26   1.353       .  A
N22          C23   1.351       .  A
N22        C2718   1.439       .  S
C23          C24   1.381       .  A
C23        C2693   1.470       .  S
C24          C25   1.376       .  A
C24          H27   1.082       .  S
C25          C26   1.382       .  A
C25          H28   1.082       .  S
C26        C2704   1.472       .  S
O29         Ni37   1.922       .  S
O29          C39   1.283       .  A
O30         Ni37   1.923   1_545  S
O30          C40   1.282       .  A
O31         Ni37   1.917       .  S
O31          C41   1.280       .  A
O32         Ni37   1.918   1_545  S
O32          C42   1.281       .  A
O33         Ni38   1.919       .  S
O33          C42   1.281       .  A
O34         Ni38   1.921   1_565  S
O34          C41   1.281       .  A
O35         Ni38   1.922       .  S
O35          C40   1.283       .  A
O36         Ni38   1.924   1_565  S
O36          C39   1.282       .  A
Ni37        Ni38   2.386   1_565  S
C39        C2805   1.493       .  S
C40        C2763   1.494       .  S
C41        C2847   1.473       .  S
C42        C2721   1.476       .  S
N43          C47   1.350       .  A
N43          C44   1.352       .  A
N43        C2676   1.436       .  S
C44          C45   1.382       .  A
C44        C2648   1.475       .  S
C45          C46   1.381       .  A
C45          H48   1.082       .  S
C46          C47   1.382       .  A
C46          H49   1.082       .  S
C47        C2662   1.472       .  S
N50          C54   1.355       .  A
N50          C51   1.356       .  A
N50        C2634   1.440       .  S
C51          C52   1.381       .  A
C51        C2606   1.478       .  S
C52          C53   1.378       .  A
C52          H55   1.082       .  S
C53          C54   1.382       .  A
C53          H56   1.082       .  S
C54        C2620   1.479       .  S
N57          C61   1.354       .  A
N57          C58   1.353       .  A
N57        C2595   1.438       .  S
C58          C59   1.381       .  A
C58        C2564   1.475       .  S
C59          C60   1.378       .  A
C59          H62   1.082       .  S
C60          C61   1.384       .  A
C60          H63   1.082       .  S
C61        C2578   1.478       .  S
N64          C68   1.352       .  A
N64          C65   1.354       .  A
N64        C2550   1.443       .  S
C65          C66   1.382       .  A
C65        C2522   1.473       .  S
C66          C67   1.376       .  A
C66          H69   1.082       .  S
C67          C68   1.381       .  A
C67          H70   1.082       .  S
C68        C2536   1.470       .  S
O71         Ni79   1.922   1_655  S
O71          C81   1.283       .  A
O72         Ni79   1.922       .  S
O72          C82   1.283       .  A
O73         Ni79   1.918       .  S
O73          C83   1.282       .  A
O74         Ni79   1.917   1_655  S
O74          C84   1.282       .  A
O75         Ni80   1.922   1_655  S
O75          C84   1.281       .  A
O76         Ni80   1.923       .  S
O76          C83   1.283       .  A
O77         Ni80   1.914       .  S
O77          C82   1.279       .  A
O78         Ni80   1.915   1_655  S
O78          C81   1.280       .  A
Ni79        Ni80   2.381       .  S
C81        C2637   1.491       .  S
C82        C2592   1.490       .  S
C83        C2553   1.495       .  S
C84        C2679   1.490       .  S
N85          C89   1.354       .  A
N85          C86   1.352       .  A
N85        C2508   1.439       .  S
C86          C87   1.382       .  A
C86        C2483   1.473       .  S
C87          C88   1.377       .  A
C87          H90   1.082       .  S
C88          C89   1.383       .  A
C88          H91   1.082       .  S
C89        C2494   1.474       .  S
N92          C96   1.356       .  A
N92          C93   1.354       .  A
N92        C2466   1.442       .  S
C93          C94   1.381       .  A
C93        C2438   1.472       .  S
C94          C95   1.374       .  A
C94          H97   1.082       .  S
C95          C96   1.383       .  A
C95          H98   1.082       .  S
C96        C2452   1.477       .  S
N99         C103   1.352       .  A
N99         C100   1.354       .  A
N99        C2424   1.440       .  S
C100        C101   1.381       .  A
C100       C2410   1.472       .  S
C101        C102   1.376       .  A
C101        H104   1.082       .  S
C102        C103   1.381       .  A
C102        H105   1.082       .  S
C103       C2396   1.471       .  S
N106        C110   1.354       .  A
N106        C107   1.354       .  A
N106       C2385   1.441       .  S
C107        C108   1.383       .  A
C107       C2368   1.473       .  S
C108        C109   1.374       .  A
C108        H111   1.082       .  S
C109        C110   1.381       .  A
C109        H112   1.082       .  S
C110       C2357   1.472       .  S
O113       Ni121   1.919   1_545  S
O113        C123   1.281       .  A
O114       Ni121   1.920       .  S
O114        C124   1.281       .  A
O115       Ni121   1.916       .  S
O115        C125   1.281       .  A
O116       Ni121   1.917   1_545  S
O116        C126   1.282       .  A
O117       Ni122   1.926   1_545  S
O117        C126   1.282       .  A
O118       Ni122   1.929       .  S
O118        C125   1.284       .  A
O119       Ni122   1.923       .  S
O119        C124   1.282       .  A
O120       Ni122   1.922   1_545  S
O120        C123   1.283       .  A
Ni121      Ni122   2.383       .  S
C123       C2427   1.493       .  S
C124       C2469   1.479       .  S
C125       C2511   1.490       .  S
C126       C2382   1.492       .  S
N127        C131   1.356       .  A
N127        C128   1.357       .  A
N127       C2340   1.448       .  S
C128        C129   1.383       .  A
C128       C2326   1.473       .  S
C129        C130   1.373       .  A
C129        H132   1.082       .  S
C130        C131   1.381       .  A
C130        H133   1.082       .  S
C131       C2312   1.475       .  S
N134        C138   1.357       .  A
N134        C135   1.354       .  A
N134       C2298   1.441       .  S
C135        C136   1.381       .  A
C135       C2284   1.474       .  S
C136        C137   1.376       .  A
C136        H139   1.082       .  S
C137        C138   1.382       .  A
C137        H140   1.082       .  S
C138       C2270   1.478       .  S
N141        C145   1.357       .  A
N141        C142   1.355       .  A
N141       C2259   1.443       .  S
C142        C143   1.381       .  A
C142       C2242   1.475       .  S
C143        C144   1.376       .  A
C143        H146   1.082       .  S
C144        C145   1.382       .  A
C144        H147   1.082       .  S
C145       C2231   1.478       .  S
N148        C152   1.354       .  A
N148        C149   1.352       .  A
N148       C2217   1.444       .  S
C149        C150   1.382       .  A
C149       C2200   1.470       .  S
C150        C151   1.376       .  A
C150        H153   1.082       .  S
C151        C152   1.382       .  A
C151        H154   1.082       .  S
C152       C2189   1.472       .  S
O155       Ni163   1.919       .  S
O155        C165   1.280       .  A
O156       Ni163   1.917   1_565  S
O156        C166   1.282       .  A
O157       Ni163   1.921       .  S
O157        C167   1.283       .  A
O158       Ni163   1.923   1_565  S
O158        C168   1.282       .  A
O159       Ni164   1.923   1_565  S
O159        C168   1.284       .  A
O160       Ni164   1.928       .  S
O160        C167   1.284       .  A
O161       Ni164   1.923   1_565  S
O161        C166   1.282       .  A
O162       Ni164   1.923       .  S
O162        C165   1.281       .  A
Ni163      Ni164   2.383       .  S
C165       C2256   1.474       .  S
C166       C2301   1.493       .  S
C167       C2214   1.496       .  S
C168       C2343   1.498       .  S
N169        C173   1.356       .  A
N169        C170   1.356       .  A
N169       C2172   1.440       .  S
C170        C171   1.384       .  A
C170       C2158   1.482       .  S
C171        C172   1.374       .  A
C171        H174   1.082       .  S
C172        C173   1.382       .  A
C172        H175   1.082       .  S
C173       C2144   1.478       .  S
N176        C180   1.353       .  A
N176        C177   1.355       .  A
N176       C2130   1.440       .  S
C177        C178   1.384       .  A
C177       C2116   1.477       .  S
C178        C179   1.375       .  A
C178        H181   1.082       .  S
C179        C180   1.380       .  A
C179        H182   1.082       .  S
C180       C2102   1.471       .  S
N183        C187   1.356       .  A
N183        C184   1.353       .  A
N183       C2088   1.446       .  S
C184        C185   1.379       .  A
C184       C2077   1.467       .  S
C185        C186   1.374       .  A
C185        H188   1.082       .  S
C186        C187   1.384       .  A
C186        H189   1.082       .  S
C187       C2060   1.475       .  S
N190        C194   1.351       .  A
N190        C191   1.353       .  A
N190       C2049   1.441       .  S
C191        C192   1.383       .  A
C191       C2032   1.471       .  S
C192        C193   1.373       .  A
C192        H195   1.082       .  S
C193        C194   1.380       .  A
C193        H196   1.082       .  S
C194       C2018   1.465       .  S
O197       Ni205   1.915   1_554  S
O197        C207   1.281       .  A
O198       Ni205   1.917       .  S
O198        C208   1.281       .  A
O199       Ni205   1.925       .  S
O199        C209   1.282       .  A
O200       Ni205   1.923   1_554  S
O200        C210   1.282       .  A
O201       Ni206   1.926   1_554  S
O201        C210   1.282       .  A
O202       Ni206   1.923       .  S
O202        C209   1.282       .  A
O203       Ni206   1.929       .  S
O203        C208   1.284       .  A
O204       Ni206   1.929   1_554  S
O204        C207   1.284       .  A
Ni205      Ni206   2.383       .  S
C207       C2091   1.496       .  S
C208       C2133   1.489       .  S
C209       C2175   1.486       .  S
C210       C2046   1.487       .  S
N211        C215   1.357       .  A
N211        C212   1.355       .  A
N211       C2004   1.442       .  S
C212        C213   1.383       .  A
C212       C1990   1.479       .  S
C213        C214   1.375       .  A
C213        H216   1.082       .  S
C214        C215   1.382       .  A
C214        H217   1.082       .  S
C215       C1976   1.477       .  S
N218        C222   1.354       .  A
N218        C219   1.354       .  A
N218       C1962   1.441       .  S
C219        C220   1.382       .  A
C219       C1948   1.472       .  S
C220        C221   1.371       .  A
C220        H223   1.082       .  S
C221        C222   1.383       .  A
C221        H224   1.082       .  S
C222       C1937   1.473       .  S
N225        C229   1.352       .  A
N225        C226   1.355       .  A
N225       C1920   1.440       .  S
C226        C227   1.383       .  A
C226       C1906   1.477       .  S
C227        C228   1.376       .  A
C227        H230   1.082       .  S
C228        C229   1.381       .  A
C228        H231   1.082       .  S
C229       C1892   1.470       .  S
N232        C236   1.358       .  A
N232        C233   1.359       .  A
N232       C1881   1.443       .  S
C233        C234   1.384       .  A
C233       C1864   1.483       .  S
C234        C235   1.372       .  A
C234        H237   1.082       .  S
C235        C236   1.382       .  A
C235        H238   1.082       .  S
C236       C1850   1.481       .  S
O239       Ni247   1.920   1_545  S
O239        C249   1.283       .  A
O240       Ni247   1.921       .  S
O240        C250   1.281       .  A
O241       Ni247   1.920   1_545  S
O241        C251   1.281       .  A
O242       Ni247   1.924       .  S
O242        C252   1.282       .  A
O243       Ni248   1.926       .  S
O243        C252   1.283       .  A
O244       Ni248   1.927   1_545  S
O244        C251   1.282       .  A
O245       Ni248   1.924       .  S
O245        C250   1.282       .  A
O246       Ni248   1.921   1_545  S
O246        C249   1.281       .  A
Ni247      Ni248   2.386       .  S
C249       C1923   1.491       .  S
C250       C1965   1.482       .  S
C251       C1878   1.480       .  S
C252       C2007   1.484       .  S
N253        C257   1.352       .  A
N253        C254   1.352       .  A
N253       C1836   1.439       .  S
C254        C255   1.382       .  A
C254       C1808   1.471       .  S
C255        C256   1.378       .  A
C255        H258   1.082       .  S
C256        C257   1.382       .  A
C256        H259   1.082       .  S
C257       C1822   1.473       .  S
N260        C264   1.358       .  A
N260        C261   1.356       .  A
N260       C1794   1.444       .  S
C261        C262   1.381       .  A
C261       C1766   1.476       .  S
C262        C263   1.375       .  A
C262        H265   1.082       .  S
C263        C264   1.382       .  A
C263        H266   1.082       .  S
C264       C1780   1.479       .  S
N267        C271   1.351       .  A
N267        C268   1.353       .  A
N267       C1755   1.436       .  S
C268        C269   1.383       .  A
C268       C1724   1.476       .  S
C269        C270   1.378       .  A
C269        H272   1.082       .  S
C270        C271   1.381       .  A
C270        H273   1.082       .  S
C271       C1741   1.471       .  S
N274        C278   1.357       .  A
N274        C275   1.359       .  A
N274       C1713   1.447       .  S
C275        C276   1.381       .  A
C275       C1696   1.475       .  S
C276        C277   1.373       .  A
C276        H279   1.082       .  S
C277        C278   1.382       .  A
C277        H280   1.082       .  S
C278       C1682   1.476       .  S
O281       Ni289   1.915   1_554  S
O281        C291   1.280       .  A
O282       Ni289   1.916       .  S
O282        C292   1.282       .  A
O283       Ni289   1.920   1_554  S
O283        C293   1.283       .  A
O284       Ni289   1.918       .  S
O284        C294   1.281       .  A
O285       Ni290   1.927       .  S
O285        C294   1.283       .  A
O286       Ni290   1.926   1_554  S
O286        C293   1.283       .  A
O287       Ni290   1.925       .  S
O287        C292   1.282       .  A
O288       Ni290   1.924   1_554  S
O288        C291   1.283       .  A
Ni289      Ni290   2.382       .  S
C291       C1752   1.483       .  S
C292       C1797   1.497       .  S
C293       C1710   1.499       .  S
C294       C1839   1.488       .  S
N295        C299   1.353       .  A
N295        C296   1.354       .  A
N295       C1668   1.441       .  S
C296        C297   1.382       .  A
C296       C1654   1.474       .  S
C297        C298   1.379       .  A
C297        H300   1.082       .  S
C298        C299   1.382       .  A
C298        H301   1.082       .  S
C299       C1640   1.475       .  S
N302        C306   1.355       .  A
N302        C303   1.352       .  A
N302       C1626   1.439       .  S
C303        C304   1.380       .  A
C303       C1612   1.473       .  S
C304        C305   1.377       .  A
C304        H307   1.082       .  S
C305        C306   1.383       .  A
C305        H308   1.082       .  S
C306       C1598   1.478       .  S
N309        C313   1.351       .  A
N309        C310   1.351       .  A
N309       C1584   1.440       .  S
C310        C311   1.381       .  A
C310       C1556   1.466       .  S
C311        C312   1.376       .  A
C311        H314   1.082       .  S
C312        C313   1.381       .  A
C312        H315   1.082       .  S
C313       C1570   1.467       .  S
N316        C320   1.353       .  A
N316        C317   1.351       .  A
N316       C1542   1.444       .  S
C317        C318   1.380       .  A
C317       C1514   1.464       .  S
C318        C319   1.374       .  A
C318        H321   1.082       .  S
C319        C320   1.382       .  A
C319        H322   1.082       .  S
C320       C1528   1.466       .  S
O323       Ni331   1.924       .  S
O323        C333   1.283       .  A
O324       Ni331   1.918   1_554  S
O324        C334   1.282       .  A
O325       Ni331   1.920       .  S
O325        C335   1.281       .  A
O326       Ni331   1.921   1_554  S
O326        C336   1.283       .  A
O327       Ni332   1.920   1_554  S
O327        C336   1.282       .  A
O328       Ni332   1.919       .  S
O328        C335   1.281       .  A
O329       Ni332   1.927   1_554  S
O329        C334   1.283       .  A
O330       Ni332   1.922       .  S
O330        C333   1.282       .  A
Ni331      Ni332   2.383       .  S
C333       C1671   1.497       .  S
C334       C1545   1.495       .  S
C335       C1629   1.475       .  S
C336       C1587   1.492       .  S
N337        C341   1.358       .  A
N337        C338   1.358       .  A
N337       C1500   1.446       .  S
C338        C339   1.383       .  A
C338       C1486   1.478       .  S
C339        C340   1.372       .  A
C339        H342   1.082       .  S
C340        C341   1.382       .  A
C340        H343   1.082       .  S
C341       C1472   1.478       .  S
N344        C348   1.354       .  A
N344        C345   1.358       .  A
N344       C1458   1.440       .  S
C345        C346   1.385       .  A
C345       C1430   1.483       .  S
C346        C347   1.376       .  A
C346        H349   1.082       .  S
C347        C348   1.379       .  A
C347        H350   1.082       .  S
C348       C1444   1.476       .  S
N351        C355   1.355       .  A
N351        C352   1.353       .  A
N351       C1416   1.439       .  S
C352        C353   1.382       .  A
C352       C1402   1.476       .  S
C353        C354   1.378       .  A
C353        H356   1.082       .  S
C354        C355   1.382       .  A
C354        H357   1.082       .  S
C355       C1388   1.478       .  S
N358        C362   1.351       .  A
N358        C359   1.351       .  A
N358       C1374   1.439       .  S
C359        C360   1.383       .  A
C359       C1349   1.471       .  S
C360        C361   1.375       .  A
C360        H363   1.082       .  S
C361        C362   1.382       .  A
C361        H364   1.082       .  S
C362       C1360   1.470       .  S
O365       Ni373   1.919       .  S
O365        C375   1.281       .  A
O366       Ni373   1.923   1_655  S
O366        C376   1.282       .  A
O367       Ni373   1.920       .  S
O367        C377   1.282       .  A
O368       Ni373   1.918   1_655  S
O368        C378   1.282       .  A
O369       Ni374   1.920       .  S
O369        C378   1.282       .  A
O370       Ni374   1.916   1_455  S
O370        C377   1.282       .  A
O371       Ni374   1.926       .  S
O371        C376   1.284       .  A
O372       Ni374   1.925   1_455  S
O372        C375   1.282       .  A
Ni373      Ni374   2.382   1_455  S
C375       C1377   1.479       .  S
C376       C1503   1.499       .  S
C377       C1419   1.491       .  S
C378       C1461   1.492       .  S
N379        C383   1.350       .  A
N379        C380   1.353       .  A
N379       C1332   1.433       .  S
C380        C381   1.385       .  A
C380       C1318   1.482       .  S
C381        C382   1.380       .  A
C381        H384   1.082       .  S
C382        C383   1.381       .  A
C382        H385   1.082       .  S
C383       C1304   1.475       .  S
N386        C390   1.352       .  A
N386        C387   1.352       .  A
N386       C1290   1.439       .  S
C387        C388   1.381       .  A
C387       C1276   1.468       .  S
C388        C389   1.377       .  A
C388        H391   1.082       .  S
C389        C390   1.382       .  A
C389        H392   1.082       .  S
C390       C1262   1.473       .  S
N393        C397   1.356       .  A
N393        C394   1.353       .  A
N393       C1251   1.437       .  S
C394        C395   1.379       .  A
C394       C1234   1.474       .  S
C395        C396   1.375       .  A
C395        H398   1.082       .  S
C396        C397   1.385       .  A
C396        H399   1.082       .  S
C397       C1220   1.483       .  S
N400        C404   1.354       .  A
N400        C401   1.353       .  A
N400       C1206   1.441       .  S
C401        C402   1.382       .  A
C401       C1195   1.472       .  S
C402        C403   1.375       .  A
C402        H405   1.082       .  S
C403        C404   1.380       .  A
C403        H406   1.082       .  S
C404       C1181   1.471       .  S
O407       Ni415   1.918       .  S
O407        C417   1.282       .  A
O408       Ni415   1.920   1_554  S
O408        C418   1.283       .  A
O409       Ni415   1.919       .  S
O409        C419   1.281       .  A
O410       Ni415   1.923   1_554  S
O410        C420   1.282       .  A
O411       Ni416   1.915   1_554  S
O411        C420   1.282       .  A
O412       Ni416   1.921       .  S
O412        C419   1.282       .  A
O413       Ni416   1.917   1_554  S
O413        C418   1.281       .  A
O414       Ni416   1.915       .  S
O414        C417   1.280       .  A
Ni415      Ni416   2.385       .  S
C417       C1335   1.477       .  S
C418       C1209   1.492       .  S
C419       C1293   1.488       .  S
C420       C1248   1.485       .  S
N421        C425   1.352       .  A
N421        C422   1.356       .  A
N421       C1164   1.441       .  S
C422        C423   1.384       .  A
C422       C1150   1.480       .  S
C423        C424   1.377       .  A
C423        H426   1.082       .  S
C424        C425   1.380       .  A
C424        H427   1.082       .  S
C425       C1139   1.470       .  S
N428        C432   1.354       .  A
N428        C429   1.354       .  A
N428       C1122   1.444       .  S
C429        C430   1.382       .  A
C429       C1097   1.468       .  S
C430        C431   1.376       .  A
C430        H433   1.082       .  S
C431        C432   1.380       .  A
C431        H434   1.082       .  S
C432       C1108   1.472       .  S
N435        C439   1.354       .  A
N435        C436   1.352       .  A
N435       C1080   1.438       .  S
C436        C437   1.381       .  A
C436       C1052   1.472       .  S
C437        C438   1.374       .  A
C437        H440   1.082       .  S
C438        C439   1.384       .  A
C438        H441   1.082       .  S
C439       C1066   1.476       .  S
N442        C446   1.354       .  A
N442        C443   1.351       .  A
N442       C1041   1.438       .  S
C443        C444   1.382       .  A
C443       C1010   1.474       .  S
C444        C445   1.377       .  A
C444        H447   1.082       .  S
C445        C446   1.384       .  A
C445        H448   1.082       .  S
C446       C1024   1.478       .  S
O449       Ni457   1.926       .  S
O449        C459   1.282       .  A
O450       Ni457   1.926   1_655  S
O450        C460   1.284       .  A
O451       Ni457   1.921   1_655  S
O451        C461   1.282       .  A
O452       Ni457   1.918       .  S
O452        C462   1.281       .  A
O453       Ni458   1.918       .  S
O453        C462   1.282       .  A
O454       Ni458   1.916   1_655  S
O454        C461   1.282       .  A
O455       Ni458   1.917   1_655  S
O455        C460   1.281       .  A
O456       Ni458   1.916       .  S
O456        C459   1.280       .  A
Ni457      Ni458   2.382       .  S
C459       C1083   1.480       .  S
C460       C1125   1.497       .  S
C461       C1167   1.490       .  S
C462       C1038   1.491       .  S
N463        C467   1.351       .  A
N463        C464   1.350       .  A
N463        C996   1.438       .  S
C464        C465   1.381       .  A
C464        C971   1.465       .  S
C465        C466   1.375       .  A
C465        H468   1.082       .  S
C466        C467   1.382       .  A
C466        H469   1.082       .  S
C467        C985   1.469       .  S
N470        C474   1.357       .  A
N470        C471   1.357       .  A
N470        C954   1.444       .  S
C471        C472   1.382       .  A
C471        C929   1.478       .  S
C472        C473   1.373       .  A
C472        H475   1.082       .  S
C473        C474   1.383       .  A
C473        H476   1.082       .  S
C474        C940   1.479       .  S
N477        C481   1.355       .  A
N477        C478   1.354       .  A
N477        C912   1.445       .  S
C478        C479   1.381       .  A
C478        C887   1.469       .  S
C479        C480   1.373       .  A
C479        H482   1.082       .  S
C480        C481   1.382       .  A
C480        H483   1.082       .  S
C481        C898   1.468       .  S
N484        C488   1.356       .  A
N484        C485   1.353       .  A
N484        C873   1.438       .  S
C485        C486   1.381       .  A
C485        C845   1.476       .  S
C486        C487   1.372       .  A
C486        H489   1.082       .  S
C487        C488   1.384       .  A
C487        H490   1.082       .  S
C488        C856   1.480       .  S
O491       Ni499   1.924   1_455  S
O491        C501   1.284       .  A
O492       Ni499   1.925       .  S
O492        C502   1.282       .  A
O493       Ni499   1.916       .  S
O493        C503   1.281       .  A
O494       Ni499   1.916   1_455  S
O494        C504   1.280       .  A
O495       Ni500   1.925   1_455  S
O495        C504   1.282       .  A
O496       Ni500   1.924       .  S
O496        C503   1.283       .  A
O497       Ni500   1.928       .  S
O497        C502   1.283       .  A
O498       Ni500   1.923   1_455  S
O498        C501   1.282       .  A
Ni499      Ni500   2.386       .  S
C501        C915   1.496       .  S
C502        C957   1.484       .  S
C503        C999   1.486       .  S
C504        C870   1.479       .  S
O505       Ni513   1.903       .  S
O505        C515   1.280       .  A
O506       Ni513   1.899   1_655  S
O506        C516   1.279       .  A
O507       Ni513   1.911   1_655  S
O507        C517   1.280       .  A
O508       Ni513   1.910       .  S
O508        C518   1.280       .  A
O509       Ni514   1.916       .  S
O509        C518   1.280       .  A
O510       Ni514   1.915   1_655  S
O510        C517   1.280       .  A
O511       Ni514   1.920   1_655  S
O511        C516   1.282       .  A
O512       Ni514   1.923       .  S
O512        C515   1.283       .  A
Ni513      Ni514   2.389       .  S
C515       C1055   1.485       .  S
C516        C968   1.477       .  S
C517       C1136   1.471       .  S
C518        C884   1.470       .  S
O519       Ni527   1.917       .  S
O519        C529   1.280       .  A
O520       Ni527   1.920       .  S
O520        C530   1.282       .  A
O521       Ni527   1.924       .  S
O521        C531   1.284       .  A
O522       Ni527   1.918       .  S
O522        C532   1.281       .  A
O523       Ni528   1.907       .  S
O523        C532   1.281       .  A
O524       Ni528   1.906       .  S
O524        C531   1.279       .  A
O525       Ni528   1.910       .  S
O525        C530   1.281       .  A
O526       Ni528   1.911       .  S
O526        C529   1.279       .  A
Ni527      Ni528   2.384       .  S
C529       C2746   1.465       .  S
C530        C943   1.488       .  S
C531       C2707   1.490       .  S
C532        C982   1.487       .  S
O533       Ni541   1.905       .  S
O533        C543   1.279       .  A
O534       Ni541   1.903       .  S
O534        C544   1.280       .  A
O535       Ni541   1.907       .  S
O535        C545   1.281       .  A
O536       Ni541   1.907       .  S
O536        C546   1.279       .  A
O537       Ni542   1.912       .  S
O537        C546   1.279       .  A
O538       Ni542   1.919       .  S
O538        C545   1.281       .  A
O539       Ni542   1.929       .  S
O539        C544   1.283       .  A
O540       Ni542   1.922       .  S
O540        C543   1.282       .  A
Ni541      Ni542   2.388       .  S
C543       C2413   1.469       .  S
C544        C859   1.487       .  S
C545       C2371   1.487       .  S
C546        C901   1.463       .  S
O547       Ni555   1.911       .  S
O547        C557   1.281       .  A
O548       Ni555   1.908       .  S
O548        C558   1.280       .  A
O549       Ni555   1.912       .  S
O549        C559   1.282       .  A
O550       Ni555   1.911       .  S
O550        C560   1.279       .  A
O551       Ni556   1.921       .  S
O551        C560   1.281       .  A
O552       Ni556   1.920       .  S
O552        C559   1.281       .  A
O553       Ni556   1.926       .  S
O553        C558   1.283       .  A
O554       Ni556   1.923       .  S
O554        C557   1.283       .  A
Ni555      Ni556   2.388       .  S
C557       C1237   1.484       .  S
C558       C1111   1.478       .  S
C559       C1192   1.484       .  S
C560       C1153   1.468       .  S
O561       Ni569   1.918       .  S
O561        C571   1.280       .  A
O562       Ni569   1.922       .  S
O562        C572   1.282       .  A
O563       Ni569   1.920       .  S
O563        C573   1.282       .  A
O564       Ni569   1.916       .  S
O564        C574   1.281       .  A
O565       Ni570   1.904       .  S
O565        C574   1.279       .  A
O566       Ni570   1.906       .  S
O566        C573   1.281       .  A
O567       Ni570   1.903       .  S
O567        C572   1.279       .  A
O568       Ni570   1.905       .  S
O568        C571   1.278       .  A
Ni569      Ni570   2.391       .  S
C571       C1027   1.462       .  S
C572       C1573   1.474       .  S
C573       C1069   1.484       .  S
C574       C1531   1.467       .  S
O575       Ni583   1.922       .  S
O575        C585   1.281       .  A
O576       Ni583   1.925   1_554  S
O576        C586   1.283       .  A
O577       Ni583   1.923   1_554  S
O577        C587   1.282       .  A
O578       Ni583   1.923       .  S
O578        C588   1.282       .  A
O579       Ni584   1.907       .  S
O579        C588   1.279       .  A
O580       Ni584   1.910   1_554  S
O580        C587   1.281       .  A
O581       Ni584   1.910   1_554  S
O581        C586   1.279       .  A
O582       Ni584   1.911       .  S
O582        C585   1.281       .  A
Ni583      Ni584   2.387       .  S
C585       C1307   1.487       .  S
C586       C1685   1.474       .  S
C587       C1223   1.491       .  S
C588       C1769   1.471       .  S
O589       Ni597   1.923       .  S
O589        C599   1.282       .  A
O590       Ni597   1.922       .  S
O590        C600   1.282       .  A
O591       Ni597   1.915       .  S
O591        C601   1.280       .  A
O592       Ni597   1.915       .  S
O592        C602   1.280       .  A
O593       Ni598   1.908       .  S
O593        C602   1.279       .  A
O594       Ni598   1.909       .  S
O594        C601   1.280       .  A
O595       Ni598   1.917       .  S
O595        C600   1.282       .  A
O596       Ni598   1.920       .  S
O596        C599   1.283       .  A
Ni597      Ni598   2.388       .  S
C599       C1321   1.496       .  S
C600       C1447   1.484       .  S
C601       C1279   1.472       .  S
C602       C1489   1.463       .  S
O603       Ni611   1.927   1_455  S
O603        C613   1.283       .  A
O604       Ni611   1.921       .  S
O604        C614   1.282       .  A
O605       Ni611   1.925       .  S
O605        C615   1.282       .  A
O606       Ni611   1.922   1_455  S
O606        C616   1.282       .  A
O607       Ni612   1.906   1_455  S
O607        C616   1.281       .  A
O608       Ni612   1.907       .  S
O608        C615   1.278       .  A
O609       Ni612   1.912       .  S
O609        C614   1.282       .  A
O610       Ni612   1.915   1_455  S
O610        C613   1.281       .  A
Ni611      Ni612   2.386       .  S
C613       C1391   1.481       .  S
C614        C926   1.492       .  S
C615       C1475   1.470       .  S
C616        C842   1.489       .  S
O617       Ni625   1.899       .  S
O617        C627   1.279       .  A
O618       Ni625   1.903       .  S
O618        C628   1.278       .  A
O619       Ni625   1.912       .  S
O619        C629   1.280       .  A
O620       Ni625   1.910       .  S
O620        C630   1.280       .  A
O621       Ni626   1.925       .  S
O621        C630   1.283       .  A
O622       Ni626   1.920       .  S
O622        C629   1.281       .  A
O623       Ni626   1.927       .  S
O623        C628   1.283       .  A
O624       Ni626   1.928       .  S
O624        C627   1.284       .  A
Ni625      Ni626   2.387       .  S
C627       C1363   1.488       .  S
C628       C1657   1.472       .  S
C629       C1405   1.471       .  S
C630       C1615   1.486       .  S
O631       Ni639   1.920       .  S
O631        C641   1.281       .  A
O632       Ni639   1.921   1_554  S
O632        C642   1.283       .  A
O633       Ni639   1.921   1_554  S
O633        C643   1.282       .  A
O634       Ni639   1.920       .  S
O634        C644   1.281       .  A
O635       Ni640   1.916       .  S
O635        C644   1.281       .  A
O636       Ni640   1.916   1_554  S
O636        C643   1.282       .  A
O637       Ni640   1.905   1_554  S
O637        C642   1.279       .  A
O638       Ni640   1.908       .  S
O638        C641   1.280       .  A
Ni639      Ni640   2.387       .  S
C641       C1811   1.477       .  S
C642       C1559   1.479       .  S
C643       C1727   1.489       .  S
C644       C1643   1.475       .  S
O645       Ni653   1.922       .  S
O645        C655   1.282       .  A
O646       Ni653   1.922       .  S
O646        C656   1.281       .  A
O647       Ni653   1.920       .  S
O647        C657   1.280       .  A
O648       Ni653   1.925       .  S
O648        C658   1.283       .  A
O649       Ni654   1.914       .  S
O649        C658   1.280       .  A
O650       Ni654   1.912       .  S
O650        C657   1.280       .  A
O651       Ni654   1.913       .  S
O651        C656   1.280       .  A
O652       Ni654   1.913       .  S
O652        C655   1.282       .  A
Ni653      Ni654   2.389       .  S
C655       C1867   1.488       .  S
C656       C1825   1.474       .  S
C657       C1909   1.469       .  S
C658       C1783   1.477       .  S
O659       Ni667   1.912       .  S
O659        C669   1.279       .  A
O660       Ni667   1.908       .  S
O660        C670   1.280       .  A
O661       Ni667   1.916       .  S
O661        C671   1.280       .  A
O662       Ni667   1.917       .  S
O662        C672   1.282       .  A
O663       Ni668   1.917       .  S
O663        C672   1.280       .  A
O664       Ni668   1.921       .  S
O664        C671   1.283       .  A
O665       Ni668   1.921       .  S
O665        C670   1.283       .  A
O666       Ni668   1.919       .  S
O666        C669   1.281       .  A
Ni667      Ni668   2.386       .  S
C669       C2203   1.471       .  S
C670       C1738   1.485       .  S
C671       C2245   1.491       .  S
C672       C1699   1.478       .  S
O673       Ni681   1.904   1_545  S
O673        C683   1.280       .  A
O674       Ni681   1.903       .  S
O674        C684   1.278       .  A
O675       Ni681   1.916       .  S
O675        C685   1.281       .  A
O676       Ni681   1.915   1_545  S
O676        C686   1.281       .  A
O677       Ni682   1.915   1_545  S
O677        C686   1.280       .  A
O678       Ni682   1.918       .  S
O678        C685   1.283       .  A
O679       Ni682   1.926       .  S
O679        C684   1.284       .  A
O680       Ni682   1.923   1_545  S
O680        C683   1.282       .  A
Ni681      Ni682   2.384       .  S
C683       C1895   1.480       .  S
C684       C2441   1.489       .  S
C685       C1979   1.493       .  S
C686       C2354   1.473       .  S
O687       Ni695   1.930       .  S
O687        C697   1.284       .  A
O688       Ni695   1.931       .  S
O688        C698   1.283       .  A
O689       Ni695   1.923       .  S
O689        C699   1.282       .  A
O690       Ni695   1.927       .  S
O690        C700   1.282       .  A
O691       Ni696   1.904       .  S
O691        C700   1.280       .  A
O692       Ni696   1.899       .  S
O692        C699   1.279       .  A
O693       Ni696   1.905       .  S
O693        C698   1.280       .  A
O694       Ni696   1.908       .  S
O694        C697   1.280       .  A
Ni695      Ni696   2.380       .  S
C697       C1993   1.494       .  S
C698       C2119   1.491       .  S
C699       C1951   1.487       .  S
C700       C2161   1.491       .  S
O701       Ni709   1.920   1_554  S
O701        C711   1.280       .  A
O702       Ni709   1.923       .  S
O702        C712   1.284       .  A
O703       Ni709   1.917       .  S
O703        C713   1.281       .  A
O704       Ni709   1.913   1_554  S
O704        C714   1.279       .  A
O705       Ni710   1.910       .  S
O705        C714   1.281       .  A
O706       Ni710   1.913   1_556  S
O706        C713   1.282       .  A
O707       Ni710   1.907   1_556  S
O707        C712   1.279       .  A
O708       Ni710   1.905       .  S
O708        C711   1.278       .  A
Ni709      Ni710   2.386   1_556  S
C711       C2063   1.462       .  S
C712       C1601   1.491       .  S
C713       C2147   1.491       .  S
C714       C1517   1.475       .  S
O715       Ni723   1.907       .  S
O715        C725   1.279       .  A
O716       Ni723   1.908       .  S
O716        C726   1.281       .  A
O717       Ni723   1.908       .  S
O717        C727   1.280       .  A
O718       Ni723   1.909       .  S
O718        C728   1.280       .  A
O719       Ni724   1.916       .  S
O719        C728   1.281       .  A
O720       Ni724   1.924       .  S
O720        C727   1.282       .  A
O721       Ni724   1.916       .  S
O721        C726   1.281       .  A
O722       Ni724   1.914       .  S
O722        C725   1.280       .  A
Ni723      Ni724   2.389       .  S
C725       C2329   1.464       .  S
C726       C2035   1.485       .  S
C727       C2287   1.479       .  S
C728       C2074   1.473       .  S
O729       Ni737   1.924   1_545  S
O729        C739   1.284       .  A
O730       Ni737   1.922       .  S
O730        C740   1.282       .  A
O731       Ni737   1.913       .  S
O731        C741   1.279       .  A
O732       Ni737   1.917   1_545  S
O732        C742   1.281       .  A
O733       Ni738   1.910   1_545  S
O733        C742   1.282       .  A
O734       Ni738   1.916       .  S
O734        C741   1.281       .  A
O735       Ni738   1.910       .  S
O735        C740   1.280       .  A
O736       Ni738   1.905   1_545  S
O736        C739   1.279       .  A
Ni737      Ni738   2.387       .  S
C739       C2228   1.488       .  S
C740       C2480   1.475       .  S
C741       C2315   1.466       .  S
C742       C2399   1.487       .  S
O743       Ni751   1.918       .  S
O743        C753   1.281       .  A
O744       Ni751   1.917       .  S
O744        C754   1.281       .  A
O745       Ni751   1.921       .  S
O745        C755   1.282       .  A
O746       Ni751   1.920       .  S
O746        C756   1.281       .  A
O747       Ni752   1.913       .  S
O747        C756   1.282       .  A
O748       Ni752   1.916       .  S
O748        C755   1.283       .  A
O749       Ni752   1.909       .  S
O749        C754   1.279       .  A
O750       Ni752   1.908       .  S
O750        C753   1.279       .  A
Ni751      Ni752   2.386       .  S
C753       C2539   1.471       .  S
C754       C2497   1.467       .  S
C755       C2581   1.490       .  S
C756       C2455   1.493       .  S
O757       Ni765   1.908   1_455  S
O757        C767   1.279       .  A
O758       Ni765   1.906       .  S
O758        C768   1.280       .  A
O759       Ni765   1.911       .  S
O759        C769   1.280       .  A
O760       Ni765   1.910   1_455  S
O760        C770   1.279       .  A
O761       Ni766   1.922       .  S
O761        C770   1.281       .  A
O762       Ni766   1.924   1_655  S
O762        C769   1.282       .  A
O763       Ni766   1.920   1_655  S
O763        C768   1.281       .  A
O764       Ni766   1.923       .  S
O764        C767   1.282       .  A
Ni765      Ni766   2.391   1_655  S
C767       C2567   1.473       .  S
C768       C1094   1.474       .  S
C769       C2651   1.473       .  S
C770       C1013   1.472       .  S
O771       Ni779   1.912       .  S
O771        C781   1.280       .  A
O772       Ni779   1.913       .  S
O772        C782   1.280       .  A
O773       Ni779   1.911       .  S
O773        C783   1.280       .  A
O774       Ni779   1.907       .  S
O774        C784   1.281       .  A
O775       Ni780   1.922       .  S
O775        C784   1.281       .  A
O776       Ni780   1.915       .  S
O776        C783   1.280       .  A
O777       Ni780   1.930       .  S
O777        C782   1.284       .  A
O778       Ni780   1.932       .  S
O778        C781   1.285       .  A
Ni779      Ni780   2.387       .  S
C781       C2833   1.494       .  S
C782       C2623   1.482       .  S
C783       C2791   1.466       .  S
C784       C2665   1.480       .  S
O785       Ni793   1.912       .  S
O785        C795   1.279       .  A
O786       Ni793   1.920   1_565  S
O786        C796   1.282       .  A
O787       Ni793   1.931   1_565  S
O787        C797   1.285       .  A
O788       Ni793   1.926       .  S
O788        C798   1.282       .  A
O789       Ni794   1.897       .  S
O789        C798   1.277       .  A
O790       Ni794   1.901   1_565  S
O790        C797   1.278       .  A
O791       Ni794   1.912   1_565  S
O791        C796   1.280       .  A
O792       Ni794   1.910       .  S
O792        C795   1.280       .  A
Ni793      Ni794   2.390       .  S
C795       C2735   1.463       .  S
C796       C2273   1.475       .  S
C797       C2819   1.493       .  S
C798       C2186   1.463       .  S
O799       Ni807   1.921   1_455  S
O799        C809   1.281       .  A
O800       Ni807   1.915       .  S
O800        C810   1.280       .  A
O801       Ni807   1.930       .  S
O801        C811   1.284       .  A
O802       Ni807   1.925   1_455  S
O802        C812   1.283       .  A
O803       Ni808   1.899       .  S
O803        C812   1.279       .  A
O804       Ni808   1.904   1_655  S
O804        C811   1.278       .  A
O805       Ni808   1.916   1_655  S
O805        C810   1.280       .  A
O806       Ni808   1.912       .  S
O806        C809   1.281       .  A
Ni807      Ni808   2.389   1_655  S
C809       C2525   1.474       .  S
C810       C1433   1.468       .  S
C811       C2609   1.476       .  S
C812       C1346   1.484       .  S
O813       Ni821   1.901   1_545  S
O813        C823   1.280       .  A
O814       Ni821   1.904       .  S
O814        C824   1.280       .  A
O815       Ni821   1.909       .  S
O815        C825   1.279       .  A
O816       Ni821   1.910   1_545  S
O816        C826   1.281       .  A
O817       Ni822   1.924   1_545  S
O817        C826   1.282       .  A
O818       Ni822   1.924       .  S
O818        C825   1.282       .  A
O819       Ni822   1.918       .  S
O819        C824   1.282       .  A
O820       Ni822   1.923   1_545  S
O820        C823   1.282       .  A
Ni821      Ni822   2.383       .  S
C823       C2690   1.486       .  S
C824       C1934   1.485       .  S
C825       C2777   1.473       .  S
C826       C1853   1.495       .  S
O827       Ni835   1.913   1_556  S
O827        C837   1.280       .  A
O828       Ni835   1.917       .  S
O828        C838   1.281       .  A
O829       Ni835   1.917       .  S
O829        C839   1.282       .  A
O830       Ni835   1.922   1_556  S
O830        C840   1.282       .  A
O831       Ni836   1.908       .  S
O831        C840   1.279       .  A
O832       Ni836   1.906   1_554  S
O832        C839   1.279       .  A
O833       Ni836   1.907   1_554  S
O833        C838   1.279       .  A
O834       Ni836   1.909       .  S
O834        C837   1.280       .  A
Ni835      Ni836   2.390   1_554  S
C837       C2105   1.470       .  S
C838       C1178   1.470       .  S
C839       C2021   1.484       .  S
C840       C1265   1.472       .  S
C841        C842   1.407       .  A
C841        C846   1.392       .  A
C841        H848   1.083       .  S
C842        C843   1.419       .  A
C843        C844   1.410       .  A
C843        N850   1.437       .  S
C844        C845   1.402       .  A
C844        H849   1.083       .  S
C845        C846   1.408       .  A
C846        N847   1.433       .  S
N847        H851   1.043       .  S
N847        H852   1.045       .  S
N850        H853   1.046       .  S
N850        H854   1.046       .  S
C855        C856   1.403       .  A
C855        C860   1.408       .  A
C855        H862   1.083       .  S
C856        C857   1.410       .  A
C857        C858   1.399       .  A
C857        N864   1.439       .  S
C858        C859   1.405       .  A
C858        H863   1.083       .  S
C859        C860   1.414       .  A
C860        N861   1.432       .  S
N861        H865   1.046       .  S
N861        H866   1.045       .  S
N864        H867   1.044       .  S
N864        H868   1.047       .  S
C869        C870   1.404       .  A
C869        C874   1.404       .  A
C869        H876   1.084       .  S
C870        C871   1.411       .  A
C871        C872   1.405       .  A
C871        N878   1.437       .  S
C872        C873   1.401       .  A
C872        H877   1.083       .  S
C873        C874   1.414       .  A
C874        N875   1.437       .  S
N875        H879   1.045       .  S
N875        H880   1.044       .  S
N878        H881   1.046       .  S
N878        H882   1.045       .  S
C883        C884   1.401       .  A
C883        C888   1.398       .  A
C883        H890   1.084       .  S
C884        C885   1.412       .  A
C885        C886   1.403       .  A
C885        N892   1.438       .  S
C886        C887   1.399       .  A
C886        H891   1.084       .  S
C887        C888   1.412       .  A
C888        N889   1.433       .  S
N889        H893   1.044       .  S
N889        H894   1.045       .  S
N892        H895   1.047       .  S
N892        H896   1.044       .  S
C897        C898   1.400       .  A
C897        C902   1.401       .  A
C897        H904   1.084       .  S
C898        C899   1.413       .  A
C899        C900   1.396       .  A
C899        N906   1.433       .  S
C900        C901   1.400       .  A
C900        H905   1.084       .  S
C901        C902   1.409       .  A
C902        N903   1.438       .  S
N903        H907   1.046       .  S
N903        H908   1.045       .  S
N906        H909   1.044       .  S
N906        H910   1.044       .  S
C911        C912   1.401       .  A
C911        C916   1.406       .  A
C911        H918   1.083       .  S
C912        C913   1.406       .  A
C913        C914   1.406       .  A
C913        N920   1.430       .  S
C914        C915   1.408       .  A
C914        H919   1.083       .  S
C915        C916   1.417       .  A
C916        N917   1.432       .  S
N917        H921   1.046       .  S
N917        H922   1.046       .  S
N920        H923   1.045       .  S
N920        H924   1.046       .  S
C925        C926   1.408       .  A
C925        C930   1.402       .  A
C925        H932   1.083       .  S
C926        C927   1.419       .  A
C927        C928   1.408       .  A
C927        N934   1.437       .  S
C928        C929   1.400       .  A
C928        H933   1.084       .  S
C929        C930   1.407       .  A
C930        N931   1.438       .  S
N931        H935   1.046       .  S
N931        H936   1.045       .  S
N934        H937   1.046       .  S
N934        H938   1.046       .  S
C939        C940   1.401       .  A
C939        C944   1.409       .  A
C939        H946   1.083       .  S
C940        C941   1.406       .  A
C941        C942   1.398       .  A
C941        N948   1.433       .  S
C942        C943   1.406       .  A
C942        H947   1.084       .  S
C943        C944   1.419       .  A
C944        N945   1.437       .  S
N945        H949   1.046       .  S
N945        H950   1.046       .  S
N948        H951   1.045       .  S
N948        H952   1.046       .  S
C953        C954   1.402       .  A
C953        C958   1.408       .  A
C953        H960   1.083       .  S
C954        C955   1.405       .  A
C955        C956   1.405       .  A
C955        N962   1.431       .  S
C956        C957   1.405       .  A
C956        H961   1.083       .  S
C957        C958   1.422       .  A
C958        N959   1.439       .  S
N959        H963   1.046       .  S
N959        H964   1.042       .  S
N962        H965   1.046       .  S
N962        H966   1.045       .  S
C967        C968   1.406       .  A
C967        C972   1.391       .  A
C967        H974   1.084       .  S
C968        C969   1.414       .  A
C969        C970   1.406       .  A
C969        N976   1.437       .  S
C970        C971   1.400       .  A
C970        H975   1.083       .  S
C971        C972   1.405       .  A
C972        N973   1.433       .  S
N973        H977   1.045       .  S
N973        H978   1.045       .  S
N976        H979   1.045       .  S
N976        H980   1.046       .  S
C981        C982   1.408       .  A
C981        C986   1.392       .  A
C981        H988   1.083       .  S
C982        C983   1.419       .  A
C983        C984   1.408       .  A
C983        N990   1.437       .  S
C984        C985   1.399       .  A
C984        H989   1.083       .  S
C985        C986   1.406       .  A
C986        N987   1.433       .  S
N987        H991   1.044       .  S
N987        H992   1.045       .  S
N990        H993   1.046       .  S
N990        H994   1.046       .  S
C995        C996   1.399       .  A
C995       C1000   1.405       .  A
C995       H1002   1.083       .  S
C996        C997   1.413       .  A
C997        C998   1.404       .  A
C997       N1004   1.437       .  S
C998        C999   1.406       .  A
C998       H1003   1.084       .  S
C999       C1000   1.415       .  A
C1000      N1001   1.438       .  S
N1001      H1005   1.046       .  S
N1001      H1006   1.045       .  S
N1004      H1007   1.043       .  S
N1004      H1008   1.046       .  S
C1009      C1010   1.401       .  A
C1009      C1014   1.404       .  A
C1009      H1016   1.084       .  S
C1010      C1011   1.408       .  A
C1011      C1012   1.405       .  A
C1011      N1018   1.437       .  S
C1012      C1013   1.402       .  A
C1012      H1017   1.084       .  S
C1013      C1014   1.413       .  A
C1014      N1015   1.439       .  S
N1015      H1019   1.046       .  S
N1015      H1020   1.045       .  S
N1018      H1021   1.046       .  S
N1018      H1022   1.046       .  S
C1023      C1024   1.403       .  A
C1023      C1028   1.403       .  A
C1023      H1030   1.083       .  S
C1024      C1025   1.412       .  A
C1025      C1026   1.404       .  A
C1025      N1032   1.437       .  S
C1026      C1027   1.399       .  A
C1026      H1031   1.084       .  S
C1027      C1028   1.408       .  A
C1028      N1029   1.439       .  S
N1029      H1033   1.046       .  S
N1029      H1034   1.045       .  S
N1032      H1035   1.046       .  S
N1032      H1036   1.045       .  S
C1037      C1038   1.410       .  A
C1037      C1042   1.403       .  A
C1037      H1044   1.083       .  S
C1038      C1039   1.422       .  A
C1039      C1040   1.399       .  A
C1039      N1046   1.432       .  S
C1040      C1041   1.398       .  A
C1040      H1045   1.084       .  S
C1041      C1042   1.402       .  A
C1042      N1043   1.431       .  S
N1043      H1047   1.046       .  S
N1043      H1048   1.045       .  S
N1046      H1049   1.045       .  S
N1046      H1050   1.045       .  S
C1051      C1052   1.401       .  A
C1051      C1056   1.404       .  A
C1051      H1058   1.084       .  S
C1052      C1053   1.405       .  A
C1053      C1054   1.401       .  A
C1053      N1060   1.438       .  S
C1054      C1055   1.408       .  A
C1054      H1059   1.083       .  S
C1055      C1056   1.413       .  A
C1056      N1057   1.432       .  S
N1057      H1061   1.046       .  S
N1057      H1062   1.046       .  S
N1060      H1063   1.046       .  S
N1060      H1064   1.045       .  S
C1065      C1066   1.402       .  A
C1065      C1070   1.405       .  A
C1065      H1072   1.083       .  S
C1066      C1067   1.408       .  A
C1067      C1068   1.400       .  A
C1067      N1074   1.438       .  S
C1068      C1069   1.405       .  A
C1068      H1073   1.083       .  S
C1069      C1070   1.414       .  A
C1070      N1071   1.432       .  S
N1071      H1075   1.046       .  S
N1071      H1076   1.045       .  S
N1074      H1077   1.045       .  S
N1074      H1078   1.046       .  S
C1079      C1080   1.400       .  A
C1079      C1084   1.397       .  A
C1079      H1086   1.084       .  S
C1080      C1081   1.414       .  A
C1081      C1082   1.406       .  A
C1081      N1088   1.437       .  S
C1082      C1083   1.406       .  A
C1082      H1087   1.084       .  S
C1083      C1084   1.415       .  A
C1084      N1085   1.433       .  S
N1085      H1089   1.044       .  S
N1085      H1090   1.046       .  S
N1088      H1091   1.044       .  S
N1088      H1092   1.045       .  S
C1093      C1094   1.404       .  A
C1093      C1098   1.397       .  A
C1093      H1100   1.084       .  S
C1094      C1095   1.413       .  A
C1095      C1096   1.406       .  A
C1095      N1102   1.437       .  S
C1096      C1097   1.401       .  A
C1096      H1101   1.084       .  S
C1097      C1098   1.401       .  A
C1098      N1099   1.432       .  S
N1099      H1103   1.045       .  S
N1099      H1104   1.046       .  S
N1102      H1105   1.044       .  S
N1102      H1106   1.046       .  S
C1107      C1108   1.402       .  A
C1107      C1112   1.403       .  A
C1107      H1114   1.084       .  S
C1108      C1109   1.413       .  A
C1109      C1110   1.400       .  A
C1109      N1116   1.439       .  S
C1110      C1111   1.405       .  A
C1110      H1115   1.084       .  S
C1111      C1112   1.408       .  A
C1112      N1113   1.432       .  S
N1113      H1117   1.046       .  S
N1113      H1118   1.045       .  S
N1116      H1119   1.043       .  S
N1116      H1120   1.045       .  S
C1121      C1122   1.399       .  A
C1121      C1126   1.407       .  A
C1121      H1128   1.082       .  S
C1122      C1123   1.406       .  A
C1123      C1124   1.406       .  A
C1123      N1130   1.431       .  S
C1124      C1125   1.410       .  A
C1124      H1129   1.083       .  S
C1125      C1126   1.421       .  A
C1126      N1127   1.438       .  S
N1127      H1131   1.046       .  S
N1127      H1132   1.046       .  S
N1130      H1133   1.046       .  S
N1130      H1134   1.045       .  S
C1135      C1136   1.403       .  A
C1135      C1140   1.404       .  A
C1135      H1142   1.084       .  S
C1136      C1137   1.411       .  A
C1137      C1138   1.404       .  A
C1137      N1144   1.438       .  S
C1138      C1139   1.399       .  A
C1138      H1143   1.084       .  S
C1139      C1140   1.408       .  A
C1140      N1141   1.438       .  S
N1141      H1145   1.046       .  S
N1141      H1146   1.045       .  S
N1144      H1147   1.046       .  S
N1144      H1148   1.045       .  S
C1149      C1150   1.403       .  A
C1149      C1154   1.405       .  A
C1149      H1156   1.083       .  S
C1150      C1151   1.412       .  A
C1151      C1152   1.404       .  A
C1151      N1158   1.438       .  S
C1152      C1153   1.399       .  A
C1152      H1157   1.084       .  S
C1153      C1154   1.410       .  A
C1154      N1155   1.438       .  S
N1155      H1159   1.046       .  S
N1155      H1160   1.045       .  S
N1158      H1161   1.045       .  S
N1158      H1162   1.046       .  S
C1163      C1164   1.402       .  A
C1163      C1168   1.408       .  A
C1163      H1170   1.083       .  S
C1164      C1165   1.413       .  A
C1165      C1166   1.401       .  A
C1165      N1172   1.438       .  S
C1166      C1167   1.407       .  A
C1166      H1171   1.084       .  S
C1167      C1168   1.417       .  A
C1168      N1169   1.438       .  S
N1169      H1173   1.046       .  S
N1169      H1174   1.046       .  S
N1172      H1175   1.042       .  S
N1172      H1176   1.046       .  S
C1177      C1178   1.403       .  A
C1177      C1182   1.398       .  A
C1177      H1184   1.084       .  S
C1178      C1179   1.409       .  A
C1179      C1180   1.403       .  A
C1179      N1186   1.438       .  S
C1180      C1181   1.402       .  A
C1180      H1185   1.084       .  S
C1181      C1182   1.414       .  A
C1182      N1183   1.438       .  S
N1183      H1187   1.046       .  S
N1183      H1188   1.042       .  S
N1186      H1189   1.046       .  S
N1186      H1190   1.046       .  S
C1191      C1192   1.405       .  A
C1191      C1196   1.397       .  A
C1191      H1198   1.084       .  S
C1192      C1193   1.415       .  A
C1193      C1194   1.408       .  A
C1193      N1200   1.438       .  S
C1194      C1195   1.401       .  A
C1194      H1199   1.084       .  S
C1195      C1196   1.412       .  A
C1196      N1197   1.439       .  S
N1197      H1201   1.046       .  S
N1197      H1202   1.043       .  S
N1200      H1203   1.046       .  S
N1200      H1204   1.046       .  S
C1205      C1206   1.399       .  A
C1205      C1210   1.408       .  A
C1205      H1212   1.082       .  S
C1206      C1207   1.407       .  A
C1207      C1208   1.405       .  A
C1207      N1214   1.436       .  S
C1208      C1209   1.407       .  A
C1208      H1213   1.083       .  S
C1209      C1210   1.419       .  A
C1210      N1211   1.438       .  S
N1211      H1215   1.046       .  S
N1211      H1216   1.046       .  S
N1214      H1217   1.044       .  S
N1214      H1218   1.046       .  S
C1219      C1220   1.402       .  A
C1219      C1224   1.406       .  A
C1219      H1226   1.081       .  S
C1220      C1221   1.410       .  A
C1221      C1222   1.403       .  A
C1221      N1228   1.438       .  S
C1222      C1223   1.407       .  A
C1222      H1227   1.083       .  S
C1223      C1224   1.415       .  A
C1224      N1225   1.432       .  S
N1225      H1229   1.046       .  S
N1225      H1230   1.046       .  S
N1228      H1231   1.046       .  S
N1228      H1232   1.045       .  S
C1233      C1234   1.402       .  A
C1233      C1238   1.407       .  A
C1233      H1240   1.084       .  S
C1234      C1235   1.412       .  A
C1235      C1236   1.399       .  A
C1235      N1242   1.439       .  S
C1236      C1237   1.406       .  A
C1236      H1241   1.084       .  S
C1237      C1238   1.414       .  A
C1238      N1239   1.438       .  S
N1239      H1243   1.046       .  S
N1239      H1244   1.045       .  S
N1242      H1245   1.043       .  S
N1242      H1246   1.045       .  S
C1247      C1248   1.405       .  A
C1247      C1252   1.399       .  A
C1247      H1254   1.084       .  S
C1248      C1249   1.417       .  A
C1249      C1250   1.410       .  A
C1249      N1256   1.437       .  S
C1250      C1251   1.401       .  A
C1250      H1255   1.083       .  S
C1251      C1252   1.401       .  A
C1252      N1253   1.431       .  S
N1253      H1257   1.046       .  S
N1253      H1258   1.045       .  S
N1256      H1259   1.045       .  S
N1256      H1260   1.046       .  S
C1261      C1262   1.399       .  A
C1261      C1266   1.404       .  A
C1261      H1268   1.084       .  S
C1262      C1263   1.409       .  A
C1263      C1264   1.406       .  A
C1263      N1270   1.437       .  S
C1264      C1265   1.401       .  A
C1264      H1269   1.084       .  S
C1265      C1266   1.411       .  A
C1266      N1267   1.438       .  S
N1267      H1271   1.045       .  S
N1267      H1272   1.045       .  S
N1270      H1273   1.046       .  S
N1270      H1274   1.045       .  S
C1275      C1276   1.398       .  A
C1275      C1280   1.402       .  A
C1275      H1282   1.084       .  S
C1276      C1277   1.407       .  A
C1277      C1278   1.405       .  A
C1277      N1284   1.437       .  S
C1278      C1279   1.404       .  A
C1278      H1283   1.084       .  S
C1279      C1280   1.412       .  A
C1280      N1281   1.438       .  S
N1281      H1285   1.045       .  S
N1281      H1286   1.046       .  S
N1284      H1287   1.045       .  S
N1284      H1288   1.046       .  S
C1289      C1290   1.399       .  A
C1289      C1294   1.400       .  A
C1289      H1296   1.083       .  S
C1290      C1291   1.413       .  A
C1291      C1292   1.404       .  A
C1291      N1298   1.437       .  S
C1292      C1293   1.407       .  A
C1292      H1297   1.084       .  S
C1293      C1294   1.419       .  A
C1294      N1295   1.433       .  S
N1295      H1299   1.044       .  S
N1295      H1300   1.046       .  S
N1298      H1301   1.043       .  S
N1298      H1302   1.045       .  S
C1303      C1304   1.402       .  A
C1303      C1308   1.401       .  A
C1303      H1310   1.084       .  S
C1304      C1305   1.412       .  A
C1305      C1306   1.399       .  A
C1305      N1312   1.439       .  S
C1306      C1307   1.407       .  A
C1306      H1311   1.084       .  S
C1307      C1308   1.418       .  A
C1308      N1309   1.432       .  S
N1309      H1313   1.045       .  S
N1309      H1314   1.045       .  S
N1312      H1315   1.043       .  S
N1312      H1316   1.046       .  S
C1317      C1318   1.401       .  A
C1317      C1322   1.411       .  A
C1317      H1324   1.083       .  S
C1318      C1319   1.404       .  A
C1319      C1320   1.402       .  A
C1319      N1326   1.432       .  S
C1320      C1321   1.408       .  A
C1320      H1325   1.083       .  S
C1321      C1322   1.421       .  A
C1322      N1323   1.437       .  S
N1323      H1327   1.045       .  S
N1323      H1328   1.046       .  S
N1326      H1329   1.045       .  S
N1326      H1330   1.046       .  S
C1331      C1332   1.399       .  A
C1331      C1336   1.404       .  A
C1331      H1338   1.083       .  S
C1332      C1333   1.411       .  A
C1333      C1334   1.400       .  A
C1333      N1340   1.437       .  S
C1334      C1335   1.404       .  A
C1334      H1339   1.084       .  S
C1335      C1336   1.413       .  A
C1336      N1337   1.438       .  S
N1337      H1341   1.046       .  S
N1337      H1342   1.046       .  S
N1340      H1343   1.044       .  S
N1340      H1344   1.045       .  S
C1345      C1346   1.408       .  A
C1345      C1350   1.396       .  A
C1345      H1352   1.083       .  S
C1346      C1347   1.414       .  A
C1347      C1348   1.405       .  A
C1347      N1354   1.432       .  S
C1348      C1349   1.401       .  A
C1348      H1353   1.084       .  S
C1349      C1350   1.402       .  A
C1350      N1351   1.433       .  S
N1351      H1355   1.046       .  S
N1351      H1356   1.045       .  S
N1354      H1357   1.046       .  S
N1354      H1358   1.046       .  S
C1359      C1360   1.401       .  A
C1359      C1364   1.407       .  A
C1359      H1366   1.083       .  S
C1360      C1361   1.411       .  A
C1361      C1362   1.396       .  A
C1361      N1368   1.440       .  S
C1362      C1363   1.409       .  A
C1362      H1367   1.083       .  S
C1363      C1364   1.416       .  A
C1364      N1365   1.437       .  S
N1365      H1369   1.046       .  S
N1365      H1370   1.046       .  S
N1368      H1371   1.043       .  S
N1368      H1372   1.045       .  S
C1373      C1374   1.401       .  A
C1373      C1378   1.403       .  A
C1373      H1380   1.083       .  S
C1374      C1375   1.407       .  A
C1375      C1376   1.406       .  A
C1375      N1382   1.437       .  S
C1376      C1377   1.404       .  A
C1376      H1381   1.084       .  S
C1377      C1378   1.416       .  A
C1378      N1379   1.432       .  S
N1379      H1383   1.045       .  S
N1379      H1384   1.046       .  S
N1382      H1385   1.045       .  S
N1382      H1386   1.045       .  S
C1387      C1388   1.402       .  A
C1387      C1392   1.401       .  A
C1387      H1394   1.084       .  S
C1388      C1389   1.408       .  A
C1389      C1390   1.406       .  A
C1389      N1396   1.438       .  S
C1390      C1391   1.406       .  A
C1390      H1395   1.083       .  S
C1391      C1392   1.415       .  A
C1392      N1393   1.432       .  S
N1393      H1397   1.044       .  S
N1393      H1398   1.046       .  S
N1396      H1399   1.045       .  S
N1396      H1400   1.046       .  S
C1401      C1402   1.402       .  A
C1401      C1406   1.406       .  A
C1401      H1408   1.084       .  S
C1402      C1403   1.406       .  A
C1403      C1404   1.402       .  A
C1403      N1410   1.432       .  S
C1404      C1405   1.403       .  A
C1404      H1409   1.084       .  S
C1405      C1406   1.409       .  A
C1406      N1407   1.437       .  S
N1407      H1411   1.046       .  S
N1407      H1412   1.045       .  S
N1410      H1413   1.046       .  S
N1410      H1414   1.045       .  S
C1415      C1416   1.401       .  A
C1415      C1420   1.407       .  A
C1415      H1422   1.083       .  S
C1416      C1417   1.413       .  A
C1417      C1418   1.401       .  A
C1417      N1424   1.439       .  S
C1418      C1419   1.408       .  A
C1418      H1423   1.084       .  S
C1419      C1420   1.417       .  A
C1420      N1421   1.438       .  S
N1421      H1425   1.046       .  S
N1421      H1426   1.046       .  S
N1424      H1427   1.042       .  S
N1424      H1428   1.046       .  S
C1429      C1430   1.403       .  A
C1429      C1434   1.402       .  A
C1429      H1436   1.084       .  S
C1430      C1431   1.414       .  A
C1431      C1432   1.404       .  A
C1431      N1438   1.438       .  S
C1432      C1433   1.397       .  A
C1432      H1437   1.084       .  S
C1433      C1434   1.413       .  A
C1434      N1435   1.433       .  S
N1435      H1439   1.045       .  S
N1435      H1440   1.046       .  S
N1438      H1441   1.045       .  S
N1438      H1442   1.046       .  S
C1443      C1444   1.401       .  A
C1443      C1448   1.404       .  A
C1443      H1450   1.084       .  S
C1444      C1445   1.415       .  A
C1445      C1446   1.402       .  A
C1445      N1452   1.439       .  S
C1446      C1447   1.406       .  A
C1446      H1451   1.084       .  S
C1447      C1448   1.411       .  A
C1448      N1449   1.432       .  S
N1449      H1453   1.046       .  S
N1449      H1454   1.045       .  S
N1452      H1455   1.043       .  S
N1452      H1456   1.046       .  S
C1457      C1458   1.399       .  A
C1457      C1462   1.402       .  A
C1457      H1464   1.083       .  S
C1458      C1459   1.404       .  A
C1459      C1460   1.405       .  A
C1459      N1466   1.431       .  S
C1460      C1461   1.410       .  A
C1460      H1465   1.083       .  S
C1461      C1462   1.416       .  A
C1462      N1463   1.432       .  S
N1463      H1467   1.046       .  S
N1463      H1468   1.046       .  S
N1466      H1469   1.046       .  S
N1466      H1470   1.045       .  S
C1471      C1472   1.400       .  A
C1471      C1476   1.400       .  A
C1471      H1478   1.083       .  S
C1472      C1473   1.412       .  A
C1473      C1474   1.404       .  A
C1473      N1480   1.438       .  S
C1474      C1475   1.400       .  A
C1474      H1479   1.084       .  S
C1475      C1476   1.417       .  A
C1476      N1477   1.438       .  S
N1477      H1481   1.046       .  S
N1477      H1482   1.042       .  S
N1480      H1483   1.046       .  S
N1480      H1484   1.045       .  S
C1485      C1486   1.403       .  A
C1485      C1490   1.397       .  A
C1485      H1492   1.082       .  S
C1486      C1487   1.411       .  A
C1487      C1488   1.401       .  A
C1487      N1494   1.432       .  S
C1488      C1489   1.398       .  A
C1488      H1493   1.084       .  S
C1489      C1490   1.411       .  A
C1490      N1491   1.433       .  S
N1491      H1495   1.045       .  S
N1491      H1496   1.045       .  S
N1494      H1497   1.046       .  S
N1494      H1498   1.046       .  S
C1499      C1500   1.402       .  A
C1499      C1504   1.411       .  A
C1499      H1506   1.083       .  S
C1500      C1501   1.411       .  A
C1501      C1502   1.401       .  A
C1501      N1508   1.431       .  S
C1502      C1503   1.408       .  A
C1502      H1507   1.083       .  S
C1503      C1504   1.421       .  A
C1504      N1505   1.438       .  S
N1505      H1509   1.046       .  S
N1505      H1510   1.045       .  S
N1508      H1511   1.045       .  S
N1508      H1512   1.042       .  S
C1513      C1514   1.399       .  A
C1513      C1518   1.398       .  A
C1513      H1520   1.084       .  S
C1514      C1515   1.405       .  A
C1515      C1516   1.400       .  A
C1515      N1522   1.438       .  S
C1516      C1517   1.405       .  A
C1516      H1521   1.084       .  S
C1517      C1518   1.416       .  A
C1518      N1519   1.432       .  S
N1519      H1523   1.046       .  S
N1519      H1524   1.044       .  S
N1522      H1525   1.045       .  S
N1522      H1526   1.046       .  S
C1527      C1528   1.397       .  A
C1527      C1532   1.400       .  A
C1527      H1534   1.084       .  S
C1528      C1529   1.410       .  A
C1529      C1530   1.403       .  A
C1529      N1536   1.438       .  S
C1530      C1531   1.401       .  A
C1530      H1535   1.084       .  S
C1531      C1532   1.411       .  A
C1532      N1533   1.438       .  S
N1533      H1537   1.045       .  S
N1533      H1538   1.045       .  S
N1536      H1539   1.045       .  S
N1536      H1540   1.045       .  S
C1541      C1542   1.402       .  A
C1541      C1546   1.410       .  A
C1541      H1548   1.083       .  S
C1542      C1543   1.413       .  A
C1543      C1544   1.401       .  A
C1543      N1550   1.437       .  S
C1544      C1545   1.408       .  A
C1544      H1549   1.084       .  S
C1545      C1546   1.418       .  A
C1546      N1547   1.437       .  S
N1547      H1551   1.046       .  S
N1547      H1552   1.045       .  S
N1550      H1553   1.042       .  S
N1550      H1554   1.046       .  S
C1555      C1556   1.398       .  A
C1555      C1560   1.398       .  A
C1555      H1562   1.084       .  S
C1556      C1557   1.413       .  A
C1557      C1558   1.401       .  A
C1557      N1564   1.438       .  S
C1558      C1559   1.405       .  A
C1558      H1563   1.084       .  S
C1559      C1560   1.413       .  A
C1560      N1561   1.433       .  S
N1561      H1565   1.045       .  S
N1561      H1566   1.046       .  S
N1564      H1567   1.043       .  S
N1564      H1568   1.045       .  S
C1569      C1570   1.400       .  A
C1569      C1574   1.405       .  A
C1569      H1576   1.084       .  S
C1570      C1571   1.404       .  A
C1571      C1572   1.401       .  A
C1571      N1578   1.438       .  S
C1572      C1573   1.406       .  A
C1572      H1577   1.083       .  S
C1573      C1574   1.411       .  A
C1574      N1575   1.437       .  S
N1575      H1579   1.046       .  S
N1575      H1580   1.045       .  S
N1578      H1581   1.046       .  S
N1578      H1582   1.046       .  S
C1583      C1584   1.399       .  A
C1583      C1588   1.408       .  A
C1583      H1590   1.082       .  S
C1584      C1585   1.405       .  A
C1585      C1586   1.406       .  A
C1585      N1592   1.436       .  S
C1586      C1587   1.408       .  A
C1586      H1591   1.083       .  S
C1587      C1588   1.419       .  A
C1588      N1589   1.438       .  S
N1589      H1593   1.045       .  S
N1589      H1594   1.046       .  S
N1592      H1595   1.045       .  S
N1592      H1596   1.046       .  S
C1597      C1598   1.400       .  A
C1597      C1602   1.404       .  A
C1597      H1604   1.084       .  S
C1598      C1599   1.414       .  A
C1599      C1600   1.401       .  A
C1599      N1606   1.437       .  S
C1600      C1601   1.407       .  A
C1600      H1605   1.083       .  S
C1601      C1602   1.420       .  A
C1602      N1603   1.438       .  S
N1603      H1607   1.046       .  S
N1603      H1608   1.046       .  S
N1606      H1609   1.042       .  S
N1606      H1610   1.045       .  S
C1611      C1612   1.397       .  A
C1611      C1616   1.400       .  A
C1611      H1618   1.084       .  S
C1612      C1613   1.407       .  A
C1613      C1614   1.408       .  A
C1613      N1620   1.437       .  S
C1614      C1615   1.407       .  A
C1614      H1619   1.083       .  S
C1615      C1616   1.415       .  A
C1616      N1617   1.432       .  S
N1617      H1621   1.045       .  S
N1617      H1622   1.046       .  S
N1620      H1623   1.045       .  S
N1620      H1624   1.045       .  S
C1625      C1626   1.402       .  A
C1625      C1630   1.407       .  A
C1625      H1632   1.083       .  S
C1626      C1627   1.405       .  A
C1627      C1628   1.404       .  A
C1627      N1634   1.431       .  S
C1628      C1629   1.403       .  A
C1628      H1633   1.084       .  S
C1629      C1630   1.410       .  A
C1630      N1631   1.438       .  S
N1631      H1635   1.046       .  S
N1631      H1636   1.046       .  S
N1634      H1637   1.045       .  S
N1634      H1638   1.046       .  S
C1639      C1640   1.400       .  A
C1639      C1644   1.404       .  A
C1639      H1646   1.084       .  S
C1640      C1641   1.412       .  A
C1641      C1642   1.400       .  A
C1641      N1648   1.432       .  S
C1642      C1643   1.403       .  A
C1642      H1647   1.084       .  S
C1643      C1644   1.411       .  A
C1644      N1645   1.437       .  S
N1645      H1649   1.046       .  S
N1645      H1650   1.046       .  S
N1648      H1651   1.045       .  S
N1648      H1652   1.044       .  S
C1653      C1654   1.398       .  A
C1653      C1658   1.401       .  A
C1653      H1660   1.084       .  S
C1654      C1655   1.411       .  A
C1655      C1656   1.408       .  A
C1655      N1662   1.438       .  S
C1656      C1657   1.403       .  A
C1656      H1661   1.084       .  S
C1657      C1658   1.411       .  A
C1658      N1659   1.438       .  S
N1659      H1663   1.046       .  S
N1659      H1664   1.045       .  S
N1662      H1665   1.045       .  S
N1662      H1666   1.046       .  S
C1667      C1668   1.398       .  A
C1667      C1672   1.407       .  A
C1667      H1674   1.082       .  S
C1668      C1669   1.406       .  A
C1669      C1670   1.408       .  A
C1669      N1676   1.437       .  S
C1670      C1671   1.410       .  A
C1670      H1675   1.083       .  S
C1671      C1672   1.420       .  A
C1672      N1673   1.437       .  S
N1673      H1677   1.046       .  S
N1673      H1678   1.045       .  S
N1676      H1679   1.045       .  S
N1676      H1680   1.046       .  S
C1681      C1682   1.400       .  A
C1681      C1686   1.406       .  A
C1681      H1688   1.084       .  S
C1682      C1683   1.410       .  A
C1683      C1684   1.404       .  A
C1683      N1690   1.437       .  S
C1684      C1685   1.401       .  A
C1684      H1689   1.084       .  S
C1685      C1686   1.414       .  A
C1686      N1687   1.438       .  S
N1687      H1691   1.046       .  S
N1687      H1692   1.045       .  S
N1690      H1693   1.046       .  S
N1690      H1694   1.046       .  S
C1695      C1696   1.402       .  A
C1695      C1700   1.398       .  A
C1695      H1702   1.084       .  S
C1696      C1697   1.407       .  A
C1697      C1698   1.406       .  A
C1697      N1704   1.438       .  S
C1698      C1699   1.406       .  A
C1698      H1703   1.084       .  S
C1699      C1700   1.414       .  A
C1700      N1701   1.433       .  S
N1701      H1705   1.045       .  S
N1701      H1706   1.045       .  S
N1704      H1707   1.046       .  S
N1704      H1708   1.045       .  S
C1709      C1710   1.409       .  A
C1709      C1714   1.403       .  A
C1709      H1716   1.083       .  S
C1710      C1711   1.420       .  A
C1711      C1712   1.411       .  A
C1711      N1718   1.438       .  S
C1712      C1713   1.403       .  A
C1712      H1717   1.083       .  S
C1713      C1714   1.405       .  A
C1714      N1715   1.431       .  S
N1715      H1719   1.045       .  S
N1715      H1720   1.046       .  S
N1718      H1721   1.046       .  S
N1718      H1722   1.046       .  S
C1723      C1724   1.400       .  A
C1723      C1728   1.408       .  A
C1723      H1730   1.083       .  S
C1724      C1725   1.406       .  A
C1725      C1726   1.404       .  A
C1725      N1732   1.438       .  S
C1726      C1727   1.408       .  A
C1726      H1731   1.083       .  S
C1727      C1728   1.417       .  A
C1728      N1729   1.438       .  S
N1729      H1733   1.046       .  S
N1729      H1734   1.046       .  S
N1732      H1735   1.045       .  S
N1732      H1736   1.046       .  S
C1737      C1738   1.407       .  A
C1737      C1742   1.403       .  A
C1737      H1744   1.084       .  S
C1738      C1739   1.414       .  A
C1739      C1740   1.399       .  A
C1739      N1746   1.433       .  S
C1740      C1741   1.397       .  A
C1740      H1745   1.084       .  S
C1741      C1742   1.414       .  A
C1742      N1743   1.438       .  S
N1743      H1747   1.046       .  S
N1743      H1748   1.043       .  S
N1746      H1749   1.046       .  S
N1746      H1750   1.046       .  S
C1751      C1752   1.405       .  A
C1751      C1756   1.403       .  A
C1751      H1758   1.084       .  S
C1752      C1753   1.415       .  A
C1753      C1754   1.405       .  A
C1753      N1760   1.437       .  S
C1754      C1755   1.399       .  A
C1754      H1759   1.083       .  S
C1755      C1756   1.412       .  A
C1756      N1757   1.437       .  S
N1757      H1761   1.046       .  S
N1757      H1762   1.043       .  S
N1760      H1763   1.045       .  S
N1760      H1764   1.046       .  S
C1765      C1766   1.403       .  A
C1765      C1770   1.407       .  A
C1765      H1772   1.084       .  S
C1766      C1767   1.406       .  A
C1767      C1768   1.400       .  A
C1767      N1774   1.432       .  S
C1768      C1769   1.402       .  A
C1768      H1773   1.084       .  S
C1769      C1770   1.409       .  A
C1770      N1771   1.437       .  S
N1771      H1775   1.046       .  S
N1771      H1776   1.046       .  S
N1774      H1777   1.046       .  S
N1774      H1778   1.045       .  S
C1779      C1780   1.404       .  A
C1779      C1784   1.402       .  A
C1779      H1786   1.084       .  S
C1780      C1781   1.414       .  A
C1781      C1782   1.402       .  A
C1781      N1788   1.438       .  S
C1782      C1783   1.404       .  A
C1782      H1787   1.081       .  S
C1783      C1784   1.416       .  A
C1784      N1785   1.440       .  S
N1785      H1789   1.046       .  S
N1785      H1790   1.042       .  S
N1788      H1791   1.042       .  S
N1788      H1792   1.046       .  S
C1793      C1794   1.402       .  A
C1793      C1798   1.402       .  A
C1793      H1800   1.083       .  S
C1794      C1795   1.404       .  A
C1795      C1796   1.403       .  A
C1795      N1802   1.431       .  S
C1796      C1797   1.410       .  A
C1796      H1801   1.083       .  S
C1797      C1798   1.423       .  A
C1798      N1799   1.432       .  S
N1799      H1803   1.046       .  S
N1799      H1804   1.045       .  S
N1802      H1805   1.046       .  S
N1802      H1806   1.045       .  S
C1807      C1808   1.401       .  A
C1807      C1812   1.408       .  A
C1807      H1814   1.083       .  S
C1808      C1809   1.407       .  A
C1809      C1810   1.394       .  A
C1809      N1816   1.433       .  S
C1810      C1811   1.404       .  A
C1810      H1815   1.084       .  S
C1811      C1812   1.413       .  A
C1812      N1813   1.437       .  S
N1813      H1817   1.046       .  S
N1813      H1818   1.045       .  S
N1816      H1819   1.045       .  S
N1816      H1820   1.045       .  S
C1821      C1822   1.398       .  A
C1821      C1826   1.396       .  A
C1821      H1828   1.084       .  S
C1822      C1823   1.409       .  A
C1823      C1824   1.407       .  A
C1823      N1830   1.437       .  S
C1824      C1825   1.403       .  A
C1824      H1829   1.084       .  S
C1825      C1826   1.414       .  A
C1826      N1827   1.431       .  S
N1827      H1831   1.044       .  S
N1827      H1832   1.045       .  S
N1830      H1833   1.046       .  S
N1830      H1834   1.045       .  S
C1835      C1836   1.399       .  A
C1835      C1840   1.402       .  A
C1835      H1842   1.083       .  S
C1836      C1837   1.414       .  A
C1837      C1838   1.406       .  A
C1837      N1844   1.437       .  S
C1838      C1839   1.407       .  A
C1838      H1843   1.084       .  S
C1839      C1840   1.413       .  A
C1840      N1841   1.432       .  S
N1841      H1845   1.045       .  S
N1841      H1846   1.046       .  S
N1844      H1847   1.043       .  S
N1844      H1848   1.046       .  S
C1849      C1850   1.401       .  A
C1849      C1854   1.402       .  A
C1849      H1856   1.084       .  S
C1850      C1851   1.415       .  A
C1851      C1852   1.399       .  A
C1851      N1858   1.440       .  S
C1852      C1853   1.408       .  A
C1852      H1857   1.083       .  S
C1853      C1854   1.422       .  A
C1854      N1855   1.432       .  S
N1855      H1859   1.046       .  S
N1855      H1860   1.045       .  S
N1858      H1861   1.043       .  S
N1858      H1862   1.046       .  S
C1863      C1864   1.402       .  A
C1863      C1868   1.411       .  A
C1863      H1870   1.083       .  S
C1864      C1865   1.408       .  A
C1865      C1866   1.399       .  A
C1865      N1872   1.433       .  S
C1866      C1867   1.404       .  A
C1866      H1871   1.084       .  S
C1867      C1868   1.418       .  A
C1868      N1869   1.437       .  S
N1869      H1873   1.045       .  S
N1869      H1874   1.046       .  S
N1872      H1875   1.046       .  S
N1872      H1876   1.045       .  S
C1877      C1878   1.403       .  A
C1877      C1882   1.403       .  A
C1877      H1884   1.084       .  S
C1878      C1879   1.413       .  A
C1879      C1880   1.411       .  A
C1879      N1886   1.437       .  S
C1880      C1881   1.403       .  A
C1880      H1885   1.083       .  S
C1881      C1882   1.406       .  A
C1882      N1883   1.431       .  S
N1883      H1887   1.046       .  S
N1883      H1888   1.045       .  S
N1886      H1889   1.045       .  S
N1886      H1890   1.045       .  S
C1891      C1892   1.401       .  A
C1891      C1896   1.406       .  A
C1891      H1898   1.084       .  S
C1892      C1893   1.405       .  A
C1893      C1894   1.399       .  A
C1893      N1900   1.438       .  S
C1894      C1895   1.405       .  A
C1894      H1899   1.084       .  S
C1895      C1896   1.412       .  A
C1896      N1897   1.432       .  S
N1897      H1901   1.046       .  S
N1897      H1902   1.045       .  S
N1900      H1903   1.044       .  S
N1900      H1904   1.047       .  S
C1905      C1906   1.399       .  A
C1905      C1910   1.400       .  A
C1905      H1912   1.083       .  S
C1906      C1907   1.409       .  A
C1907      C1908   1.402       .  A
C1907      N1914   1.432       .  S
C1908      C1909   1.401       .  A
C1908      H1913   1.084       .  S
C1909      C1910   1.418       .  A
C1910      N1911   1.439       .  S
N1911      H1915   1.045       .  S
N1911      H1916   1.043       .  S
N1914      H1917   1.045       .  S
N1914      H1918   1.046       .  S
C1919      C1920   1.400       .  A
C1919      C1924   1.401       .  A
C1919      H1926   1.083       .  S
C1920      C1921   1.407       .  A
C1921      C1922   1.406       .  A
C1921      N1928   1.437       .  S
C1922      C1923   1.408       .  A
C1922      H1927   1.083       .  S
C1923      C1924   1.421       .  A
C1924      N1925   1.432       .  S
N1925      H1929   1.042       .  S
N1925      H1930   1.048       .  S
N1928      H1931   1.044       .  S
N1928      H1932   1.045       .  S
C1933      C1934   1.407       .  A
C1933      C1938   1.393       .  A
C1933      H1940   1.083       .  S
C1934      C1935   1.417       .  A
C1935      C1936   1.405       .  A
C1935      N1942   1.438       .  S
C1936      C1937   1.400       .  A
C1936      H1941   1.082       .  S
C1937      C1938   1.410       .  A
C1938      N1939   1.434       .  S
N1939      H1943   1.043       .  S
N1939      H1944   1.046       .  S
N1942      H1945   1.046       .  S
N1942      H1946   1.046       .  S
C1947      C1948   1.401       .  A
C1947      C1952   1.407       .  A
C1947      H1954   1.083       .  S
C1948      C1949   1.405       .  A
C1949      C1950   1.398       .  A
C1949      N1956   1.439       .  S
C1950      C1951   1.408       .  A
C1950      H1955   1.083       .  S
C1951      C1952   1.418       .  A
C1952      N1953   1.437       .  S
N1953      H1957   1.046       .  S
N1953      H1958   1.046       .  S
N1956      H1959   1.046       .  S
N1956      H1960   1.045       .  S
C1961      C1962   1.400       .  A
C1961      C1966   1.409       .  A
C1961      H1968   1.083       .  S
C1962      C1963   1.408       .  A
C1963      C1964   1.407       .  A
C1963      N1970   1.437       .  S
C1964      C1965   1.404       .  A
C1964      H1969   1.084       .  S
C1965      C1966   1.415       .  A
C1966      N1967   1.438       .  S
N1967      H1971   1.046       .  S
N1967      H1972   1.045       .  S
N1970      H1973   1.045       .  S
N1970      H1974   1.045       .  S
C1975      C1976   1.400       .  A
C1975      C1980   1.407       .  A
C1975      H1982   1.084       .  S
C1976      C1977   1.402       .  A
C1977      C1978   1.402       .  A
C1977      N1984   1.432       .  S
C1978      C1979   1.409       .  A
C1978      H1983   1.083       .  S
C1979      C1980   1.420       .  A
C1980      N1981   1.438       .  S
N1981      H1985   1.046       .  S
N1981      H1986   1.045       .  S
N1984      H1987   1.046       .  S
N1984      H1988   1.046       .  S
C1989      C1990   1.402       .  A
C1989      C1994   1.411       .  A
C1989      H1996   1.084       .  S
C1990      C1991   1.409       .  A
C1991      C1992   1.395       .  A
C1991      N1998   1.433       .  S
C1992      C1993   1.409       .  A
C1992      H1997   1.083       .  S
C1993      C1994   1.419       .  A
C1994      N1995   1.437       .  S
N1995      H1999   1.046       .  S
N1995      H2000   1.046       .  S
N1998      H2001   1.046       .  S
N1998      H2002   1.043       .  S
C2003      C2004   1.401       .  A
C2003      C2008   1.404       .  A
C2003      H2010   1.084       .  S
C2004      C2005   1.415       .  A
C2005      C2006   1.405       .  A
C2005      N2012   1.437       .  S
C2006      C2007   1.406       .  A
C2006      H2011   1.084       .  S
C2007      C2008   1.420       .  A
C2008      N2009   1.439       .  S
N2009      H2013   1.046       .  S
N2009      H2014   1.042       .  S
N2012      H2015   1.043       .  S
N2012      H2016   1.045       .  S
C2017      C2018   1.396       .  A
C2017      C2022   1.401       .  A
C2017      H2024   1.084       .  S
C2018      C2019   1.404       .  A
C2019      C2020   1.404       .  A
C2019      N2026   1.437       .  S
C2020      C2021   1.408       .  A
C2020      H2025   1.083       .  S
C2021      C2022   1.419       .  A
C2022      N2023   1.438       .  S
N2023      H2027   1.046       .  S
N2023      H2028   1.045       .  S
N2026      H2029   1.045       .  S
N2026      H2030   1.045       .  S
C2031      C2032   1.399       .  A
C2031      C2036   1.403       .  A
C2031      H2038   1.083       .  S
C2032      C2033   1.403       .  A
C2033      C2034   1.398       .  A
C2033      N2040   1.433       .  S
C2034      C2035   1.407       .  A
C2034      H2039   1.083       .  S
C2035      C2036   1.416       .  A
C2036      N2037   1.432       .  S
N2037      H2041   1.046       .  S
N2037      H2042   1.045       .  S
N2040      H2043   1.046       .  S
N2040      H2044   1.045       .  S
C2045      C2046   1.406       .  A
C2045      C2050   1.405       .  A
C2045      H2052   1.084       .  S
C2046      C2047   1.414       .  A
C2047      C2048   1.408       .  A
C2047      N2054   1.437       .  S
C2048      C2049   1.400       .  A
C2048      H2053   1.083       .  S
C2049      C2050   1.414       .  A
C2050      N2051   1.438       .  S
N2051      H2055   1.045       .  S
N2051      H2056   1.043       .  S
N2054      H2057   1.045       .  S
N2054      H2058   1.045       .  S
C2059      C2060   1.400       .  A
C2059      C2064   1.397       .  A
C2059      H2066   1.083       .  S
C2060      C2061   1.412       .  A
C2061      C2062   1.403       .  A
C2061      N2068   1.438       .  S
C2062      C2063   1.399       .  A
C2062      H2067   1.084       .  S
C2063      C2064   1.415       .  A
C2064      N2065   1.439       .  S
N2065      H2069   1.046       .  S
N2065      H2070   1.043       .  S
N2068      H2071   1.045       .  S
N2068      H2072   1.046       .  S
C2073      C2074   1.404       .  A
C2073      C2078   1.401       .  A
C2073      H2080   1.084       .  S
C2074      C2075   1.412       .  A
C2075      C2076   1.404       .  A
C2075      N2082   1.438       .  S
C2076      C2077   1.400       .  A
C2076      H2081   1.084       .  S
C2077      C2078   1.405       .  A
C2078      N2079   1.438       .  S
N2079      H2083   1.046       .  S
N2079      H2084   1.045       .  S
N2082      H2085   1.046       .  S
N2082      H2086   1.046       .  S
C2087      C2088   1.400       .  A
C2087      C2092   1.405       .  A
C2087      H2094   1.083       .  S
C2088      C2089   1.416       .  A
C2089      C2090   1.406       .  A
C2089      N2096   1.438       .  S
C2090      C2091   1.408       .  A
C2090      H2095   1.083       .  S
C2091      C2092   1.419       .  A
C2092      N2093   1.438       .  S
N2093      H2097   1.046       .  S
N2093      H2098   1.046       .  S
N2096      H2099   1.042       .  S
N2096      H2100   1.046       .  S
C2101      C2102   1.399       .  A
C2101      C2106   1.404       .  A
C2101      H2108   1.084       .  S
C2102      C2103   1.409       .  A
C2103      C2104   1.402       .  A
C2103      N2110   1.437       .  S
C2104      C2105   1.400       .  A
C2104      H2109   1.084       .  S
C2105      C2106   1.413       .  A
C2106      N2107   1.438       .  S
N2107      H2111   1.046       .  S
N2107      H2112   1.045       .  S
N2110      H2113   1.044       .  S
N2110      H2114   1.046       .  S
C2115      C2116   1.402       .  A
C2115      C2120   1.408       .  A
C2115      H2122   1.083       .  S
C2116      C2117   1.411       .  A
C2117      C2118   1.393       .  A
C2117      N2124   1.434       .  S
C2118      C2119   1.408       .  A
C2118      H2123   1.083       .  S
C2119      C2120   1.415       .  A
C2120      N2121   1.432       .  S
N2121      H2125   1.046       .  S
N2121      H2126   1.046       .  S
N2124      H2127   1.045       .  S
N2124      H2128   1.043       .  S
C2129      C2130   1.400       .  A
C2129      C2134   1.408       .  A
C2129      H2136   1.083       .  S
C2130      C2131   1.413       .  A
C2131      C2132   1.404       .  A
C2131      N2138   1.437       .  S
C2132      C2133   1.405       .  A
C2132      H2137   1.084       .  S
C2133      C2134   1.417       .  A
C2134      N2135   1.438       .  S
N2135      H2139   1.046       .  S
N2135      H2140   1.045       .  S
N2138      H2141   1.043       .  S
N2138      H2142   1.045       .  S
C2143      C2144   1.399       .  A
C2143      C2148   1.408       .  A
C2143      H2150   1.082       .  S
C2144      C2145   1.407       .  A
C2145      C2146   1.403       .  A
C2145      N2152   1.438       .  S
C2146      C2147   1.408       .  A
C2146      H2151   1.083       .  S
C2147      C2148   1.420       .  A
C2148      N2149   1.438       .  S
N2149      H2153   1.046       .  S
N2149      H2154   1.046       .  S
N2152      H2155   1.045       .  S
N2152      H2156   1.046       .  S
C2157      C2158   1.403       .  A
C2157      C2162   1.402       .  A
C2157      H2164   1.082       .  S
C2158      C2159   1.408       .  A
C2159      C2160   1.400       .  A
C2159      N2166   1.438       .  S
C2160      C2161   1.408       .  A
C2160      H2165   1.083       .  S
C2161      C2162   1.421       .  A
C2162      N2163   1.432       .  S
N2163      H2167   1.045       .  S
N2163      H2168   1.045       .  S
N2166      H2169   1.045       .  S
N2166      H2170   1.046       .  S
C2171      C2172   1.400       .  A
C2171      C2176   1.408       .  A
C2171      H2178   1.083       .  S
C2172      C2173   1.407       .  A
C2173      C2174   1.409       .  A
C2173      N2180   1.437       .  S
C2174      C2175   1.407       .  A
C2174      H2179   1.084       .  S
C2175      C2176   1.415       .  A
C2176      N2177   1.437       .  S
N2177      H2181   1.046       .  S
N2177      H2182   1.045       .  S
N2180      H2183   1.045       .  S
N2180      H2184   1.045       .  S
C2185      C2186   1.401       .  A
C2185      C2190   1.401       .  A
C2185      H2192   1.084       .  S
C2186      C2187   1.409       .  A
C2187      C2188   1.398       .  A
C2187      N2194   1.432       .  S
C2188      C2189   1.403       .  A
C2188      H2193   1.084       .  S
C2189      C2190   1.409       .  A
C2190      N2191   1.437       .  S
N2191      H2195   1.046       .  S
N2191      H2196   1.046       .  S
N2194      H2197   1.046       .  S
N2194      H2198   1.044       .  S
C2199      C2200   1.400       .  A
C2199      C2204   1.397       .  A
C2199      H2206   1.084       .  S
C2200      C2201   1.411       .  A
C2201      C2202   1.398       .  A
C2201      N2208   1.433       .  S
C2202      C2203   1.402       .  A
C2202      H2207   1.084       .  S
C2203      C2204   1.415       .  A
C2204      N2205   1.432       .  S
N2205      H2209   1.046       .  S
N2205      H2210   1.045       .  S
N2208      H2211   1.044       .  S
N2208      H2212   1.045       .  S
C2213      C2214   1.409       .  A
C2213      C2218   1.404       .  A
C2213      H2220   1.084       .  S
C2214      C2215   1.417       .  A
C2215      C2216   1.408       .  A
C2215      N2222   1.437       .  S
C2216      C2217   1.401       .  A
C2216      H2221   1.083       .  S
C2217      C2218   1.413       .  A
C2218      N2219   1.438       .  S
N2219      H2223   1.046       .  S
N2219      H2224   1.043       .  S
N2222      H2225   1.046       .  S
N2222      H2226   1.046       .  S
C2227      C2228   1.407       .  A
C2227      C2232   1.403       .  A
C2227      H2234   1.084       .  S
C2228      C2229   1.418       .  A
C2229      C2230   1.403       .  A
C2229      N2236   1.439       .  S
C2230      C2231   1.400       .  A
C2230      H2235   1.084       .  S
C2231      C2232   1.415       .  A
C2232      N2233   1.439       .  S
N2233      H2237   1.046       .  S
N2233      H2238   1.042       .  S
N2236      H2239   1.046       .  S
N2236      H2240   1.046       .  S
C2241      C2242   1.398       .  A
C2241      C2246   1.399       .  A
C2241      H2248   1.084       .  S
C2242      C2243   1.408       .  A
C2243      C2244   1.400       .  A
C2243      N2250   1.432       .  S
C2244      C2245   1.409       .  A
C2244      H2249   1.084       .  S
C2245      C2246   1.422       .  A
C2246      N2247   1.432       .  S
N2247      H2251   1.045       .  S
N2247      H2252   1.045       .  S
N2250      H2253   1.046       .  S
N2250      H2254   1.044       .  S
C2255      C2256   1.403       .  A
C2255      C2260   1.407       .  A
C2255      H2262   1.084       .  S
C2256      C2257   1.416       .  A
C2257      C2258   1.403       .  A
C2257      N2264   1.439       .  S
C2258      C2259   1.403       .  A
C2258      H2263   1.083       .  S
C2259      C2260   1.410       .  A
C2260      N2261   1.437       .  S
N2261      H2265   1.045       .  S
N2261      H2266   1.045       .  S
N2264      H2267   1.043       .  S
N2264      H2268   1.045       .  S
C2269      C2270   1.402       .  A
C2269      C2274   1.397       .  A
C2269      H2276   1.084       .  S
C2270      C2271   1.410       .  A
C2271      C2272   1.408       .  A
C2271      N2278   1.437       .  S
C2272      C2273   1.406       .  A
C2272      H2277   1.084       .  S
C2273      C2274   1.412       .  A
C2274      N2275   1.433       .  S
N2275      H2279   1.045       .  S
N2275      H2280   1.046       .  S
N2278      H2281   1.046       .  S
N2278      H2282   1.046       .  S
C2283      C2284   1.402       .  A
C2283      C2288   1.408       .  A
C2283      H2290   1.084       .  S
C2284      C2285   1.409       .  A
C2285      C2286   1.395       .  A
C2285      N2292   1.431       .  S
C2286      C2287   1.405       .  A
C2286      H2291   1.084       .  S
C2287      C2288   1.413       .  A
C2288      N2289   1.437       .  S
N2289      H2293   1.045       .  S
N2289      H2294   1.046       .  S
N2292      H2295   1.043       .  S
N2292      H2296   1.045       .  S
C2297      C2298   1.401       .  A
C2297      C2302   1.406       .  A
C2297      H2304   1.083       .  S
C2298      C2299   1.415       .  A
C2299      C2300   1.401       .  A
C2299      N2306   1.439       .  S
C2300      C2301   1.407       .  A
C2300      H2305   1.083       .  S
C2301      C2302   1.415       .  A
C2302      N2303   1.432       .  S
N2303      H2307   1.045       .  S
N2303      H2308   1.046       .  S
N2306      H2309   1.042       .  S
N2306      H2310   1.046       .  S
C2311      C2312   1.402       .  A
C2311      C2316   1.404       .  A
C2311      H2318   1.084       .  S
C2312      C2313   1.417       .  A
C2313      C2314   1.399       .  A
C2313      N2320   1.438       .  S
C2314      C2315   1.398       .  A
C2314      H2319   1.084       .  S
C2315      C2316   1.409       .  A
C2316      N2317   1.438       .  S
N2317      H2321   1.046       .  S
N2317      H2322   1.046       .  S
N2320      H2323   1.043       .  S
N2320      H2324   1.046       .  S
C2325      C2326   1.401       .  A
C2325      C2330   1.401       .  A
C2325      H2332   1.084       .  S
C2326      C2327   1.412       .  A
C2327      C2328   1.403       .  A
C2327      N2334   1.438       .  S
C2328      C2329   1.400       .  A
C2328      H2333   1.084       .  S
C2329      C2330   1.408       .  A
C2330      N2331   1.438       .  S
N2331      H2335   1.046       .  S
N2331      H2336   1.046       .  S
N2334      H2337   1.044       .  S
N2334      H2338   1.046       .  S
C2339      C2340   1.402       .  A
C2339      C2344   1.409       .  A
C2339      H2346   1.083       .  S
C2340      C2341   1.407       .  A
C2341      C2342   1.403       .  A
C2341      N2348   1.431       .  S
C2342      C2343   1.408       .  A
C2342      H2347   1.083       .  S
C2343      C2344   1.421       .  A
C2344      N2345   1.438       .  S
N2345      H2349   1.046       .  S
N2345      H2350   1.045       .  S
N2348      H2351   1.046       .  S
N2348      H2352   1.045       .  S
C2353      C2354   1.401       .  A
C2353      C2358   1.401       .  A
C2353      H2360   1.084       .  S
C2354      C2355   1.411       .  A
C2355      C2356   1.403       .  A
C2355      N2362   1.438       .  S
C2356      C2357   1.400       .  A
C2356      H2361   1.084       .  S
C2357      C2358   1.417       .  A
C2358      N2359   1.439       .  S
N2359      H2363   1.046       .  S
N2359      H2364   1.043       .  S
N2362      H2365   1.046       .  S
N2362      H2366   1.046       .  S
C2367      C2368   1.399       .  A
C2367      C2372   1.406       .  A
C2367      H2374   1.081       .  S
C2368      C2369   1.405       .  A
C2369      C2370   1.401       .  A
C2369      N2376   1.438       .  S
C2370      C2371   1.408       .  A
C2370      H2375   1.083       .  S
C2371      C2372   1.418       .  A
C2372      N2373   1.437       .  S
N2373      H2377   1.046       .  S
N2373      H2378   1.046       .  S
N2376      H2379   1.046       .  S
N2376      H2380   1.046       .  S
C2381      C2382   1.408       .  A
C2381      C2386   1.401       .  A
C2381      H2388   1.084       .  S
C2382      C2383   1.419       .  A
C2383      C2384   1.412       .  A
C2383      N2390   1.437       .  S
C2384      C2385   1.401       .  A
C2384      H2389   1.082       .  S
C2385      C2386   1.402       .  A
C2386      N2387   1.431       .  S
N2387      H2391   1.045       .  S
N2387      H2392   1.046       .  S
N2390      H2393   1.045       .  S
N2390      H2394   1.046       .  S
C2395      C2396   1.399       .  A
C2395      C2400   1.408       .  A
C2395      H2402   1.083       .  S
C2396      C2397   1.407       .  A
C2397      C2398   1.393       .  A
C2397      N2404   1.432       .  S
C2398      C2399   1.406       .  A
C2398      H2403   1.084       .  S
C2399      C2400   1.420       .  A
C2400      N2401   1.438       .  S
N2401      H2405   1.046       .  S
N2401      H2406   1.045       .  S
N2404      H2407   1.045       .  S
N2404      H2408   1.044       .  S
C2409      C2410   1.405       .  A
C2409      C2414   1.404       .  A
C2409      H2416   1.084       .  S
C2410      C2411   1.410       .  A
C2411      C2412   1.395       .  A
C2411      N2418   1.432       .  S
C2412      C2413   1.402       .  A
C2412      H2417   1.084       .  S
C2413      C2414   1.405       .  A
C2414      N2415   1.432       .  S
N2415      H2419   1.046       .  S
N2415      H2420   1.045       .  S
N2418      H2421   1.045       .  S
N2418      H2422   1.043       .  S
C2423      C2424   1.400       .  A
C2423      C2428   1.406       .  A
C2423      H2430   1.083       .  S
C2424      C2425   1.412       .  A
C2425      C2426   1.403       .  A
C2425      N2432   1.437       .  S
C2426      C2427   1.408       .  A
C2426      H2431   1.084       .  S
C2427      C2428   1.419       .  A
C2428      N2429   1.438       .  S
N2429      H2433   1.046       .  S
N2429      H2434   1.045       .  S
N2432      H2435   1.042       .  S
N2432      H2436   1.046       .  S
C2437      C2438   1.396       .  A
C2437      C2442   1.402       .  A
C2437      H2444   1.084       .  S
C2438      C2439   1.406       .  A
C2439      C2440   1.407       .  A
C2439      N2446   1.438       .  S
C2440      C2441   1.408       .  A
C2440      H2445   1.083       .  S
C2441      C2442   1.420       .  A
C2442      N2443   1.438       .  S
N2443      H2447   1.045       .  S
N2443      H2448   1.046       .  S
N2446      H2449   1.045       .  S
N2446      H2450   1.046       .  S
C2451      C2452   1.400       .  A
C2451      C2456   1.401       .  A
C2451      H2458   1.084       .  S
C2452      C2453   1.407       .  A
C2453      C2454   1.402       .  A
C2453      N2460   1.439       .  S
C2454      C2455   1.408       .  A
C2454      H2459   1.083       .  S
C2455      C2456   1.423       .  A
C2456      N2457   1.432       .  S
N2457      H2461   1.046       .  S
N2457      H2462   1.045       .  S
N2460      H2463   1.045       .  S
N2460      H2464   1.045       .  S
C2465      C2466   1.403       .  A
C2465      C2470   1.408       .  A
C2465      H2472   1.083       .  S
C2466      C2467   1.416       .  A
C2467      C2468   1.403       .  A
C2467      N2474   1.437       .  S
C2468      C2469   1.402       .  A
C2468      H2473   1.084       .  S
C2469      C2470   1.412       .  A
C2470      N2471   1.438       .  S
N2471      H2475   1.045       .  S
N2471      H2476   1.045       .  S
N2474      H2477   1.042       .  S
N2474      H2478   1.045       .  S
C2479      C2480   1.402       .  A
C2479      C2484   1.403       .  A
C2479      H2486   1.084       .  S
C2480      C2481   1.414       .  A
C2481      C2482   1.405       .  A
C2481      N2488   1.438       .  S
C2482      C2483   1.400       .  A
C2482      H2487   1.083       .  S
C2483      C2484   1.406       .  A
C2484      N2485   1.432       .  S
N2485      H2489   1.046       .  S
N2485      H2490   1.045       .  S
N2488      H2491   1.046       .  S
N2488      H2492   1.046       .  S
C2493      C2494   1.402       .  A
C2493      C2498   1.406       .  A
C2493      H2500   1.084       .  S
C2494      C2495   1.413       .  A
C2495      C2496   1.396       .  A
C2495      N2502   1.432       .  S
C2496      C2497   1.399       .  A
C2496      H2501   1.084       .  S
C2497      C2498   1.412       .  A
C2498      N2499   1.438       .  S
N2499      H2503   1.046       .  S
N2499      H2504   1.045       .  S
N2502      H2505   1.044       .  S
N2502      H2506   1.045       .  S
C2507      C2508   1.399       .  A
C2507      C2512   1.402       .  A
C2507      H2514   1.084       .  S
C2508      C2509   1.414       .  A
C2509      C2510   1.406       .  A
C2509      N2516   1.437       .  S
C2510      C2511   1.407       .  A
C2510      H2515   1.084       .  S
C2511      C2512   1.414       .  A
C2512      N2513   1.432       .  S
N2513      H2517   1.046       .  S
N2513      H2518   1.046       .  S
N2516      H2519   1.043       .  S
N2516      H2520   1.046       .  S
C2521      C2522   1.404       .  A
C2521      C2526   1.400       .  A
C2521      H2528   1.084       .  S
C2522      C2523   1.415       .  A
C2523      C2524   1.398       .  A
C2523      N2530   1.438       .  S
C2524      C2525   1.402       .  A
C2524      H2529   1.084       .  S
C2525      C2526   1.412       .  A
C2526      N2527   1.432       .  S
N2527      H2531   1.045       .  S
N2527      H2532   1.045       .  S
N2530      H2533   1.042       .  S
N2530      H2534   1.045       .  S
C2535      C2536   1.399       .  A
C2535      C2540   1.403       .  A
C2535      H2542   1.084       .  S
C2536      C2537   1.411       .  A
C2537      C2538   1.397       .  A
C2537      N2544   1.433       .  S
C2538      C2539   1.402       .  A
C2538      H2543   1.084       .  S
C2539      C2540   1.414       .  A
C2540      N2541   1.438       .  S
N2541      H2545   1.046       .  S
N2541      H2546   1.044       .  S
N2544      H2547   1.044       .  S
N2544      H2548   1.046       .  S
C2549      C2550   1.400       .  A
C2549      C2554   1.405       .  A
C2549      H2556   1.082       .  S
C2550      C2551   1.413       .  A
C2551      C2552   1.405       .  A
C2551      N2558   1.438       .  S
C2552      C2553   1.410       .  A
C2552      H2557   1.083       .  S
C2553      C2554   1.417       .  A
C2554      N2555   1.438       .  S
N2555      H2559   1.046       .  S
N2555      H2560   1.045       .  S
N2558      H2561   1.043       .  S
N2558      H2562   1.045       .  S
C2563      C2564   1.399       .  A
C2563      C2568   1.406       .  A
C2563      H2570   1.084       .  S
C2564      C2565   1.407       .  A
C2565      C2566   1.402       .  A
C2565      N2572   1.432       .  S
C2566      C2567   1.402       .  A
C2566      H2571   1.084       .  S
C2567      C2568   1.414       .  A
C2568      N2569   1.438       .  S
N2569      H2573   1.046       .  S
N2569      H2574   1.045       .  S
N2572      H2575   1.045       .  S
N2572      H2576   1.046       .  S
C2577      C2578   1.401       .  A
C2577      C2582   1.408       .  A
C2577      H2584   1.083       .  S
C2578      C2579   1.404       .  A
C2579      C2580   1.401       .  A
C2579      N2586   1.432       .  S
C2580      C2581   1.407       .  A
C2580      H2585   1.083       .  S
C2581      C2582   1.417       .  A
C2582      N2583   1.432       .  S
N2583      H2587   1.046       .  S
N2583      H2588   1.046       .  S
N2586      H2589   1.046       .  S
N2586      H2590   1.045       .  S
C2591      C2592   1.407       .  A
C2591      C2596   1.401       .  A
C2591      H2598   1.084       .  S
C2592      C2593   1.421       .  A
C2593      C2594   1.399       .  A
C2593      N2600   1.432       .  S
C2594      C2595   1.398       .  A
C2594      H2599   1.083       .  S
C2595      C2596   1.413       .  A
C2596      N2597   1.436       .  S
N2597      H2601   1.045       .  S
N2597      H2602   1.043       .  S
N2600      H2603   1.045       .  S
N2600      H2604   1.045       .  S
C2605      C2606   1.404       .  A
C2605      C2610   1.402       .  A
C2605      H2612   1.084       .  S
C2606      C2607   1.405       .  A
C2607      C2608   1.401       .  A
C2607      N2614   1.432       .  S
C2608      C2609   1.405       .  A
C2608      H2613   1.084       .  S
C2609      C2610   1.413       .  A
C2610      N2611   1.432       .  S
N2611      H2615   1.045       .  S
N2611      H2616   1.045       .  S
N2614      H2617   1.045       .  S
N2614      H2618   1.046       .  S
C2619      C2620   1.400       .  A
C2619      C2624   1.406       .  A
C2619      H2626   1.084       .  S
C2620      C2621   1.413       .  A
C2621      C2622   1.403       .  A
C2621      N2628   1.432       .  S
C2622      C2623   1.404       .  A
C2622      H2627   1.084       .  S
C2623      C2624   1.414       .  A
C2624      N2625   1.438       .  S
N2625      H2629   1.046       .  S
N2625      H2630   1.045       .  S
N2628      H2631   1.045       .  S
N2628      H2632   1.045       .  S
C2633      C2634   1.400       .  A
C2633      C2638   1.408       .  A
C2633      H2640   1.082       .  S
C2634      C2635   1.404       .  A
C2635      C2636   1.402       .  A
C2635      N2642   1.431       .  S
C2636      C2637   1.407       .  A
C2636      H2641   1.083       .  S
C2637      C2638   1.420       .  A
C2638      N2639   1.438       .  S
N2639      H2643   1.046       .  S
N2639      H2644   1.046       .  S
N2642      H2645   1.045       .  S
N2642      H2646   1.046       .  S
C2647      C2648   1.402       .  A
C2647      C2652   1.405       .  A
C2647      H2654   1.084       .  S
C2648      C2649   1.405       .  A
C2649      C2650   1.402       .  A
C2649      N2656   1.432       .  S
C2650      C2651   1.403       .  A
C2650      H2655   1.084       .  S
C2651      C2652   1.408       .  A
C2652      N2653   1.431       .  S
N2653      H2657   1.045       .  S
N2653      H2658   1.046       .  S
N2656      H2659   1.046       .  S
N2656      H2660   1.045       .  S
C2661      C2662   1.402       .  A
C2661      C2666   1.404       .  A
C2661      H2668   1.084       .  S
C2662      C2663   1.402       .  A
C2663      C2664   1.397       .  A
C2663      N2670   1.432       .  S
C2664      C2665   1.405       .  A
C2664      H2669   1.084       .  S
C2665      C2666   1.418       .  A
C2666      N2667   1.432       .  S
N2667      H2671   1.046       .  S
N2667      H2672   1.045       .  S
N2670      H2673   1.045       .  S
N2670      H2674   1.046       .  S
C2675      C2676   1.399       .  A
C2675      C2680   1.399       .  A
C2675      H2682   1.084       .  S
C2676      C2677   1.412       .  A
C2677      C2678   1.401       .  A
C2677      N2684   1.438       .  S
C2678      C2679   1.408       .  A
C2678      H2683   1.084       .  S
C2679      C2680   1.420       .  A
C2680      N2681   1.432       .  S
N2681      H2685   1.046       .  S
N2681      H2686   1.044       .  S
N2684      H2687   1.043       .  S
N2684      H2688   1.045       .  S
C2689      C2690   1.408       .  A
C2689      C2694   1.392       .  A
C2689      H2696   1.084       .  S
C2690      C2691   1.418       .  A
C2691      C2692   1.409       .  A
C2691      N2698   1.437       .  S
C2692      C2693   1.400       .  A
C2692      H2697   1.084       .  S
C2693      C2694   1.406       .  A
C2694      N2695   1.433       .  S
N2695      H2699   1.044       .  S
N2695      H2700   1.045       .  S
N2698      H2701   1.045       .  S
N2698      H2702   1.046       .  S
C2703      C2704   1.397       .  A
C2703      C2708   1.402       .  A
C2703      H2710   1.084       .  S
C2704      C2705   1.406       .  A
C2705      C2706   1.406       .  A
C2705      N2712   1.437       .  S
C2706      C2707   1.409       .  A
C2706      H2711   1.083       .  S
C2707      C2708   1.420       .  A
C2708      N2709   1.438       .  S
N2709      H2713   1.046       .  S
N2709      H2714   1.046       .  S
N2712      H2715   1.045       .  S
N2712      H2716   1.046       .  S
C2717      C2718   1.401       .  A
C2717      C2722   1.405       .  A
C2717      H2724   1.082       .  S
C2718      C2719   1.415       .  A
C2719      C2720   1.403       .  A
C2719      N2726   1.438       .  S
C2720      C2721   1.404       .  A
C2720      H2725   1.084       .  S
C2721      C2722   1.410       .  A
C2722      N2723   1.438       .  S
N2723      H2727   1.046       .  S
N2723      H2728   1.045       .  S
N2726      H2729   1.043       .  S
N2726      H2730   1.046       .  S
C2731      C2732   1.400       .  A
C2731      C2736   1.395       .  A
C2731      H2738   1.084       .  S
C2732      C2733   1.410       .  A
C2733      C2734   1.403       .  A
C2733      N2740   1.438       .  S
C2734      C2735   1.400       .  A
C2734      H2739   1.083       .  S
C2735      C2736   1.411       .  A
C2736      N2737   1.433       .  S
N2737      H2741   1.045       .  S
N2737      H2742   1.045       .  S
N2740      H2743   1.046       .  S
N2740      H2744   1.046       .  S
C2745      C2746   1.399       .  A
C2745      C2750   1.400       .  A
C2745      H2752   1.084       .  S
C2746      C2747   1.407       .  A
C2747      C2748   1.402       .  A
C2747      N2754   1.438       .  S
C2748      C2749   1.402       .  A
C2748      H2753   1.084       .  S
C2749      C2750   1.418       .  A
C2750      N2751   1.438       .  S
N2751      H2755   1.046       .  S
N2751      H2756   1.043       .  S
N2754      H2757   1.046       .  S
N2754      H2758   1.046       .  S
C2759      C2760   1.403       .  A
C2759      C2764   1.411       .  A
C2759      H2766   1.083       .  S
C2760      C2761   1.415       .  A
C2761      C2762   1.402       .  A
C2761      N2768   1.438       .  S
C2762      C2763   1.406       .  A
C2762      H2767   1.083       .  S
C2763      C2764   1.418       .  A
C2764      N2765   1.438       .  S
N2765      H2769   1.045       .  S
N2765      H2770   1.046       .  S
N2768      H2771   1.042       .  S
N2768      H2772   1.045       .  S
C2773      C2774   1.400       .  A
C2773      C2778   1.404       .  A
C2773      H2780   1.084       .  S
C2774      C2775   1.416       .  A
C2775      C2776   1.401       .  A
C2775      N2782   1.439       .  S
C2776      C2777   1.400       .  A
C2776      H2781   1.084       .  S
C2777      C2778   1.413       .  A
C2778      N2779   1.439       .  S
N2779      H2783   1.046       .  S
N2779      H2784   1.044       .  S
N2782      H2785   1.043       .  S
N2782      H2786   1.045       .  S
C2787      C2788   1.400       .  A
C2787      C2792   1.395       .  A
C2787      H2794   1.084       .  S
C2788      C2789   1.408       .  A
C2789      C2790   1.404       .  A
C2789      N2796   1.437       .  S
C2790      C2791   1.401       .  A
C2790      H2795   1.084       .  S
C2791      C2792   1.412       .  A
C2792      N2793   1.432       .  S
N2793      H2797   1.043       .  S
N2793      H2798   1.047       .  S
N2796      H2799   1.046       .  S
N2796      H2800   1.046       .  S
C2801      C2802   1.400       .  A
C2801      C2806   1.410       .  A
C2801      H2808   1.083       .  S
C2802      C2803   1.401       .  A
C2803      C2804   1.402       .  A
C2803      N2810   1.431       .  S
C2804      C2805   1.408       .  A
C2804      H2809   1.083       .  S
C2805      C2806   1.420       .  A
C2806      N2807   1.438       .  S
N2807      H2811   1.045       .  S
N2807      H2812   1.046       .  S
N2810      H2813   1.045       .  S
N2810      H2814   1.046       .  S
C2815      C2816   1.397       .  A
C2815      C2820   1.402       .  A
C2815      H2822   1.084       .  S
C2816      C2817   1.416       .  A
C2817      C2818   1.406       .  A
C2817      N2824   1.438       .  S
C2818      C2819   1.408       .  A
C2818      H2823   1.083       .  S
C2819      C2820   1.420       .  A
C2820      N2821   1.439       .  S
N2821      H2825   1.045       .  S
N2821      H2826   1.045       .  S
N2824      H2827   1.043       .  S
N2824      H2828   1.045       .  S
C2829      C2830   1.398       .  A
C2829      C2834   1.406       .  A
C2829      H2836   1.084       .  S
C2830      C2831   1.409       .  A
C2831      C2832   1.402       .  A
C2831      N2838   1.432       .  S
C2832      C2833   1.408       .  A
C2832      H2837   1.083       .  S
C2833      C2834   1.421       .  A
C2834      N2835   1.438       .  S
N2835      H2839   1.045       .  S
N2835      H2840   1.045       .  S
N2838      H2841   1.045       .  S
N2838      H2842   1.044       .  S
C2843      C2844   1.402       .  A
C2843      C2848   1.406       .  A
C2843      H2850   1.083       .  S
C2844      C2845   1.407       .  A
C2845      C2846   1.403       .  A
C2845      N2852   1.431       .  S
C2846      C2847   1.402       .  A
C2846      H2851   1.084       .  S
C2847      C2848   1.411       .  A
C2848      N2849   1.438       .  S
N2849      H2853   1.046       .  S
N2849      H2854   1.045       .  S
N2852      H2855   1.045       .  S
N2852      H2856   1.046       .  S
