geometry optimzed in LAMMPS
_audit_creation_date              2020-11-30 
_audit_creation_method            'lammps2cif' 
_symmetry_space_group_name_H-M    'P1' 
_symmetry_Int_Tables_number       1 
_symmetry_cell_setting            triclinic 
loop_ 
_symmetry_equiv_pos_as_xyz 
  x,y,z 
_cell_length_a                    45.85699299 
_cell_length_b                    45.89289655848898 
_cell_length_c                    45.991214256544744 
_cell_angle_alpha                 89.90515343799207 
_cell_angle_beta                  89.97851188377605 
_cell_angle_gamma                 89.97449070404333 
loop_ 
_atom_site_label 
_atom_site_type_symbol 
_atom_site_fract_x 
_atom_site_fract_y 
_atom_site_fract_z 
_atom_site_charge 
C1          C  0.84467206  0.53482960  0.84596825     0.02900
C2          C  0.86459000  0.51959041  0.82770137     0.02900
C3          C  0.86513096  0.48865274  0.82791059     0.02900
C4          C  0.84404020  0.47320080  0.84444153     0.02900
C5          C  0.82707264  0.48814623  0.86538823     0.02900
C6          C  0.82785725  0.51908720  0.86675197     0.02900
C7          C  0.79235633  0.28273642  0.79226248     0.03700
C8          C  0.76985798  0.26737461  0.80625978    -0.12400
C9          C  0.75738867  0.24281196  0.79292510     0.01200
C10         C  0.76906859  0.23244787  0.76661709    -0.10900
C11         C  0.79174475  0.24737274  0.75265998     0.03700
C12         C  0.80316250  0.27254700  0.76557950    -0.10400
H13         H  0.76008799  0.27623929  0.82583037     0.09300
H14         H  0.75909247  0.21390290  0.75595520     0.06900
H15         H  0.82017182  0.28464323  0.75454780     0.06700
C16         C  0.56449739  0.19342957  0.83808212     0.02900
C17         C  0.54857306  0.21009012  0.85858755     0.02900
C18         C  0.51767527  0.20865263  0.85910491     0.02900
C19         C  0.50297376  0.19013472  0.83922254     0.02900
C20         C  0.51910394  0.16962951  0.82245002     0.02900
C21         C  0.55003305  0.17160055  0.82151349     0.02900
C22         C  0.21758425  0.46776232  0.84791061     0.02900
C23         C  0.23500574  0.48382902  0.86764197     0.02900
C24         C  0.23415542  0.51466758  0.86728631     0.02900
C25         C  0.21645195  0.52895810  0.84632378     0.02900
C26         C  0.19513896  0.51288991  0.83069762     0.02900
C27         C  0.19649068  0.48211353  0.83064536     0.02900
C28         C  0.27244746  0.24397503  0.75752570     0.03700
C29         C  0.29740261  0.23029584  0.76878014    -0.12400
C30         C  0.31124217  0.24135373  0.79364188     0.01200
C31         C  0.29977476  0.26611905  0.80734675    -0.10900
C32         C  0.27488951  0.27991256  0.79619194     0.03700
C33         C  0.26108525  0.26857942  0.77155810    -0.10400
H34         H  0.30700634  0.21206376  0.75729297     0.09300
H35         H  0.31109828  0.27570741  0.82567884     0.06900
H36         H  0.24257213  0.28000522  0.76222825     0.06700
C37         C  0.49995761  0.81456585  0.84713236     0.02900
C38         C  0.51490714  0.79690257  0.86763342     0.02900
C39         C  0.54583127  0.79703915  0.86807893     0.02900
C40         C  0.56148000  0.81526158  0.84858576     0.02900
C41         C  0.54628991  0.83631978  0.83171781     0.02900
C42         C  0.51537401  0.83615774  0.83111017     0.02900
C43         C  0.31844952  0.74962159  0.78214892     0.03700
C44         C  0.30639745  0.72441756  0.79450429    -0.12400
C45         C  0.28468181  0.70884807  0.77968470     0.01200
C46         C  0.27470245  0.71899990  0.75270354    -0.10900
C47         C  0.28569606  0.74486478  0.74082708     0.03700
C48         C  0.30752916  0.76013352  0.75561016    -0.10400
H49         H  0.31537209  0.71583816  0.81457382     0.09300
H50         H  0.25807890  0.70697860  0.74107515     0.06900
H51         H  0.31689016  0.77952907  0.74584020     0.06700
C52         C  0.55979464  0.81083930  0.22435406     0.02900
C53         C  0.54470301  0.83128974  0.24194045     0.02900
C54         C  0.51383133  0.83185063  0.24195476     0.02900
C55         C  0.49822663  0.81092226  0.22529480     0.02900
C56         C  0.51323497  0.79342290  0.20462146     0.02900
C57         C  0.54416969  0.79328229  0.20428750     0.02900
C58         C  0.22165005  0.81093612  0.55944535     0.02900
C59         C  0.20080349  0.79366984  0.54458659     0.02900
C60         C  0.19981012  0.79425507  0.51377409     0.02900
C61         C  0.21911192  0.81271906  0.49830444     0.02900
C62         C  0.23557061  0.83402199  0.51360182     0.02900
C63         C  0.23745848  0.83263603  0.54432159     0.02900
C64         C  0.30657508  0.75973470  0.27165251     0.03700
C65         C  0.29418508  0.77018936  0.29740207    -0.12400
C66         C  0.26876208  0.75766303  0.30881497     0.01200
C67         C  0.25555951  0.73432930  0.29412921    -0.10900
C68         C  0.26854235  0.72295282  0.26888840     0.03700
C69         C  0.29358360  0.73617860  0.25738656    -0.10400
H70         H  0.30487448  0.78765406  0.30906629     0.09300
H71         H  0.23705881  0.72325475  0.30382483     0.06900
H72         H  0.30418330  0.72664926  0.23855230     0.06700
C73         C  0.22723017  0.52834591  0.22689296     0.02900
C74         C  0.24521842  0.51255965  0.20737645     0.02900
C75         C  0.24486027  0.48164739  0.20740944     0.02900
C76         C  0.22722459  0.46676068  0.22806084     0.02900
C77         C  0.20630889  0.48259592  0.24462848     0.02900
C78         C  0.20576900  0.51345115  0.24343697     0.02900
C79         C  0.50420137  0.18823261  0.22183749     0.02900
C80         C  0.51815020  0.20678480  0.20162358     0.02900
C81         C  0.54900029  0.20834862  0.20102531     0.02900
C82         C  0.56583377  0.19158007  0.22101823     0.02900
C83         C  0.55174984  0.17004217  0.23838603     0.02900
C84         C  0.52089597  0.16787610  0.23817653     0.02900
C85         C  0.27638191  0.23870618  0.30694773     0.03700
C86         C  0.26598763  0.26397043  0.29323126    -0.12400
C87         C  0.27850454  0.27379634  0.26716474     0.01200
C88         C  0.30118961  0.25784487  0.25436026    -0.10900
C89         C  0.31175539  0.23251339  0.26782539     0.03700
C90         C  0.29904404  0.22287795  0.29389863    -0.10400
H91         H  0.24920189  0.27690938  0.30370049     0.09300
H92         H  0.31179045  0.26620118  0.23495531     0.06900
H93         H  0.30820771  0.20414560  0.30501183     0.02700
C94         C  0.22976367  0.20220397  0.56370055     0.02900
C95         C  0.20876456  0.21846193  0.54777214     0.02900
C96         C  0.20885309  0.21756747  0.51692803     0.02900
C97         C  0.23077117  0.20139296  0.50225316     0.02900
C98         C  0.24876879  0.18190105  0.51815968     0.02900
C99         C  0.24831892  0.18221209  0.54907464     0.02900
C100        C  0.83692320  0.46798559  0.22708551     0.02900
C101        C  0.85764023  0.48446097  0.24309155     0.02900
C102        C  0.85695148  0.51539634  0.24215656     0.02900
C103        C  0.83622831  0.52980526  0.22421260     0.02900
C104        C  0.81936926  0.51308198  0.20425181     0.02900
C105        C  0.81959807  0.48221692  0.20579152     0.02900
C106        C  0.84056072  0.19074312  0.56279566     0.02900
C107        C  0.86054615  0.20819477  0.54682539     0.02900
C108        C  0.86078787  0.20713087  0.51593804     0.02900
C109        C  0.84173125  0.18787684  0.50093174     0.02900
C110        C  0.82438696  0.16805756  0.51721719     0.02900
C111        C  0.82375461  0.16948381  0.54800155     0.02900
C112        C  0.79610141  0.27296729  0.27336469     0.03700
C113        C  0.80720012  0.25885100  0.29820947    -0.12400
C114        C  0.79448592  0.23282977  0.30834934     0.01200
C115        C  0.77081732  0.22075438  0.29306802    -0.10900
C116        C  0.75927558  0.23487010  0.26854106     0.03700
C117        C  0.77230476  0.26065821  0.25864293    -0.10400
H118        H  0.82478578  0.26881303  0.31039248     0.09300
H119        H  0.76028423  0.20128605  0.30133524     0.06900
H120        H  0.76269220  0.27209249  0.24034851     0.06700
C121        C  0.83521713  0.80290032  0.50164067     0.02900
C122        C  0.81913297  0.82326545  0.51845010     0.02900
C123        C  0.82104985  0.82270135  0.54927804     0.02900
C124        C  0.83894206  0.80152440  0.56328643     0.02900
C125        C  0.85891236  0.78501275  0.54615113     0.02900
C126        C  0.85687280  0.78552535  0.51535753     0.02900
C127        C  0.78953508  0.76080660  0.30734949     0.03700
C128        C  0.76385798  0.77209124  0.29497349    -0.12400
C129        C  0.75164062  0.75918204  0.27027169     0.01200
C130        C  0.76545156  0.73519513  0.25757094    -0.10900
C131        C  0.79125665  0.72375178  0.26928221     0.03700
C132        C  0.80370570  0.73709035  0.29387186    -0.10400
H133        H  0.75230318  0.78969496  0.30570192     0.09300
H134        H  0.75527147  0.72456280  0.23915631     0.06900
H135        H  0.82262823  0.72731366  0.30408996     0.06700
C136        C  0.78915872  0.75883390  0.75644092     0.03700
C137        C  0.76420591  0.77291872  0.76727169    -0.12400
C138        C  0.75009992  0.76261808  0.79237421     0.01200
C139        C  0.76138682  0.73826532  0.80699918    -0.10900
C140        C  0.78618011  0.72379821  0.79634220     0.03700
C141        C  0.80017199  0.73441968  0.77130162    -0.10400
H142        H  0.75495649  0.79119856  0.75551562     0.09300
H143        H  0.75009329  0.72975175  0.82591610     0.06900
H144        H  0.81882892  0.72283514  0.76258661     0.06700
O145        O  0.06292583  0.64645936  0.71861330    -0.71200
O146        O  0.00471768  0.68626089  0.67513128    -0.71400
O147        O  0.00504706  0.64607704  0.71822981    -0.71200
O148        O  0.06296113  0.68675238  0.67577454    -0.71200
O149        O  0.06327473  0.65254506  0.64314193    -0.71200
O150        O  0.00519110  0.61140496  0.68607101    -0.71200
O151        O  0.00464152  0.65140042  0.64319501    -0.71200
O152        O  0.06379392  0.61222296  0.68602115    -0.71400
V153        V  0.03389903  0.66573395  0.69624049     1.35200
V154        V  0.03427419  0.63255612  0.66520355     1.35200
C155        C  0.07269908  0.62220697  0.71004635     0.78100
C156        C  0.99491420  0.67570171  0.65171044     0.78100
C157        C  0.99573388  0.62162693  0.70979701     0.78000
C158        C  0.07269539  0.67684973  0.65209834     0.78000
O159        O  0.64589610  0.02662011  0.68657959    -0.71200
O160        O  0.68768189  0.96731502  0.64625450    -0.71400
O161        O  0.64706124  0.96813364  0.68845837    -0.71200
O162        O  0.68641221  0.02614027  0.64421655    -0.71200
O163        O  0.72142868  0.02655205  0.67607272    -0.71200
O164        O  0.68060362  0.97067031  0.72173105    -0.71200
O165        O  0.72159561  0.96861005  0.67923352    -0.71200
O166        O  0.68062535  0.02878275  0.71864373    -0.71400
V167        V  0.66744707  0.99706371  0.66697309     1.35200
V168        V  0.70037658  0.99862581  0.69828653     1.35200
C169        C  0.65609893  0.03756821  0.70966886     0.78100
C170        C  0.71186167  0.95806270  0.65581960     0.78100
C171        C  0.65672352  0.96012091  0.71294208     0.78000
C172        C  0.71088213  0.03577189  0.65240320     0.78000
O173        O  0.64392137  0.65584048  0.00410940    -0.71200
O174        O  0.68311337  0.61311926  0.06338271    -0.71400
O175        O  0.64141422  0.65473123  0.06261700    -0.71200
O176        O  0.68573653  0.61443862  0.00507319    -0.71200
O177        O  0.71806265  0.64903537  0.00570793    -0.71200
O178        O  0.67583660  0.68709632  0.06583930    -0.71200
O179        O  0.71774609  0.64543523  0.06358403    -0.71200
O180        O  0.67587561  0.69057538  0.00817351    -0.71400
V181        V  0.66416757  0.63516657  0.03382958     1.35200
V182        V  0.69623526  0.66736949  0.03578145     1.35200
C183        C  0.65267357  0.68094189  0.99690585     0.78100
C184        C  0.70760204  0.62152762  0.07279274     0.78100
C185        C  0.65106235  0.67802128  0.07376852     0.78000
C186        C  0.70962332  0.62476683  0.99585671     0.78000
O187        O  0.38209730  0.02996164  0.72230649    -0.71200
O188        O  0.33864061  0.97291015  0.68040341    -0.71400
O189        O  0.38046810  0.97175917  0.72235817    -0.71200
O190        O  0.34032413  0.03123432  0.68058878    -0.71200
O191        O  0.37399391  0.03075437  0.64734957    -0.71200
O192        O  0.41389561  0.97062828  0.68889514    -0.71200
O193        O  0.37240949  0.97162409  0.64728536    -0.71200
O194        O  0.41542751  0.02924140  0.68873245    -0.71400
V195        V  0.36101439  0.00141002  0.70072530     1.35200
V196        V  0.39323165  0.00054899  0.66866817     1.35200
C197        C  0.40635402  0.03902802  0.71279598     0.78100
C198        C  0.34802748  0.96271719  0.65660689     0.78100
C199        C  0.40435897  0.96156735  0.71311733     0.78000
C200        C  0.35033411  0.04121852  0.65695574     0.78000
O201        O  0.06012919  0.38372500  0.69066293    -0.71200
O202        O  0.00093556  0.34356128  0.64822849    -0.71400
O203        O  0.00133447  0.38479227  0.69006659    -0.71200
O204        O  0.05977734  0.34290595  0.64884915    -0.71200
O205        O  0.05853795  0.30870991  0.68156956    -0.71200
O206        O  0.00064928  0.35114698  0.72335682    -0.71200
O207        O  0.00029163  0.30988803  0.68149506    -0.71200
O208        O  0.05877789  0.34985668  0.72373382    -0.71400
V209        V  0.03048291  0.36309426  0.67006934     1.35200
V210        V  0.02959563  0.33056527  0.70185767     1.35200
C211        C  0.06909457  0.37372326  0.71470717     0.78100
C212        C  0.99091768  0.31959297  0.65754781     0.78100
C213        C  0.99143803  0.37538682  0.71398207     0.78000
C214        C  0.06893352  0.31860742  0.65804486     0.78000
O215        O  0.37883593  0.69260379  0.00568079    -0.71200
O216        O  0.33799804  0.64949982  0.06339527    -0.71400
O217        O  0.37938603  0.69177557  0.06375707    -0.71200
O218        O  0.33745545  0.65016375  0.00550942    -0.71200
O219        O  0.37176426  0.61751081  0.00436766    -0.71200
O220        O  0.41289985  0.65828431  0.06357476    -0.71200
O221        O  0.37196959  0.61645048  0.06277732    -0.71200
O222        O  0.41280336  0.65957729  0.00493272    -0.71400
V223        V  0.35909450  0.67038768  0.03455767     1.35200
V224        V  0.39170601  0.63862269  0.03389791     1.35200
C225        C  0.40298533  0.68367293  0.99582465     0.78100
C226        C  0.34782355  0.62543353  0.07251872     0.78100
C227        C  0.40335428  0.68215434  0.07345590     0.78000
C228        C  0.34723982  0.62644619  0.99546170     0.78000
O229        O  0.69309844  0.38200367  0.00075468    -0.71200
O230        O  0.64951016  0.34014766  0.05764583    -0.71400
O231        O  0.69054860  0.38185150  0.05945254    -0.71200
O232        O  0.65192112  0.34062808  0.99912658    -0.71200
O233        O  0.68455289  0.30634296  0.00164159    -0.71200
O234        O  0.72520456  0.34952850  0.05955856    -0.71200
O235        O  0.68379464  0.30747806  0.05957665    -0.71200
O236        O  0.72628638  0.34816866  0.00152209    -0.71400
V237        V  0.67194308  0.36053205  0.02928402     1.35200
V238        V  0.70431715  0.32853466  0.03054001     1.35200
C239        C  0.71714397  0.37215089  0.99154172     0.78100
C240        C  0.65920017  0.31652424  0.06804897     0.78100
C241        C  0.71466970  0.37300673  0.06941012     0.78000
C242        C  0.66123541  0.31618098  0.99065380     0.78000
O243        O  0.68405956  0.02775049  0.34009857    -0.71200
O244        O  0.72617143  0.96879933  0.38093229    -0.71400
O245        O  0.68393807  0.96965650  0.33950308    -0.71200
O246        O  0.72627522  0.02702439  0.38139091    -0.71200
O247        O  0.69314727  0.02657206  0.41521240    -0.71200
O248        O  0.65067822  0.96940898  0.37320654    -0.71200
O249        O  0.69240306  0.96798645  0.41408145    -0.71200
O250        O  0.65134919  0.02823610  0.37429537    -0.71400
V251        V  0.70447772  0.99830294  0.36113465     1.35200
V252        V  0.67254272  0.99806152  0.39352109     1.35200
C253        C  0.66046375  0.03787534  0.35016208     0.78100
C254        C  0.71649603  0.95852989  0.40461419     0.78100
C255        C  0.65992546  0.96010238  0.34906786     0.78000
C256        C  0.71710976  0.03618241  0.40563914     0.78000
O257        O  0.06137974  0.61467822  0.37422352    -0.71200
O258        O  0.00119643  0.65530240  0.41415853    -0.71400
O259        O  0.00259512  0.61386857  0.37301826    -0.71200
O260        O  0.06018464  0.65641939  0.41519988    -0.71200
O261        O  0.05929285  0.69015121  0.38198291    -0.71200
O262        O  0.00353440  0.64681785  0.33903379    -0.71200
O263        O  0.00116008  0.68866512  0.38057025    -0.71200
O264        O  0.06171100  0.64801307  0.34061454    -0.71400
V265        V  0.03136017  0.63572496  0.39351021     1.35200
V266        V  0.03144439  0.66775437  0.36121106     1.35200
C267        C  0.07148566  0.62415455  0.35044706     0.78100
C268        C  0.99104813  0.67895010  0.40428667     0.78100
C269        C  0.99364447  0.62297131  0.34861479     0.78000
C270        C  0.06905897  0.68084212  0.40594145     0.78000
O271        O  0.05870701  0.35191318  0.34035286    -0.71200
O272        O  0.00298012  0.30817104  0.38349695    -0.71400
O273        O  0.00053492  0.35023100  0.34193152    -0.71200
O274        O  0.06132629  0.30992415  0.38185823    -0.71200
O275        O  0.05993499  0.34255842  0.41601642    -0.71200
O276        O  0.00145804  0.38416656  0.37482770    -0.71200
O277        O  0.00124531  0.34252788  0.41594433    -0.71200
O278        O  0.06029678  0.38404476  0.37498958    -0.71400
V279        V  0.03085467  0.33067816  0.36255238     1.35200
V280        V  0.03071952  0.36267337  0.39477662     1.35200
C281        C  0.06907716  0.37532997  0.35044257     0.78100
C282        C  0.99267680  0.31794280  0.40704660     0.78100
C283        C  0.99113723  0.37437499  0.35131063     0.78000
C284        C  0.07067051  0.31927931  0.40598070     0.78000
O285        O  0.41716262  0.03204532  0.37628603    -0.71200
O286        O  0.37212898  0.97672795  0.41848031    -0.71400
O287        O  0.41459157  0.97371558  0.37811562    -0.71200
O288        O  0.37490804  0.03536669  0.41676110    -0.71200
O289        O  0.34123137  0.03480207  0.38352142    -0.71200
O290        O  0.38241681  0.97498399  0.34345740    -0.71200
O291        O  0.33970107  0.97668123  0.38401975    -0.71200
O292        O  0.38393920  0.03314728  0.34261033    -0.71400
V293        V  0.39401144  0.00447298  0.39679418     1.35200
V294        V  0.36245969  0.00492785  0.36406716     1.35200
C295        C  0.40842402  0.04157824  0.35199231     0.78100
C296        C  0.34823444  0.96735538  0.40841727     0.78100
C297        C  0.40569790  0.96442993  0.35381473     0.78000
C298        C  0.35103641  0.04511958  0.40705957     0.78000
O299        O  0.38532733  0.30909472  0.06027907    -0.71200
O300        O  0.34361894  0.35241880  0.00355347    -0.71400
O301        O  0.38419358  0.30955707  0.00237842    -0.71200
O302        O  0.34484346  0.35197451  0.06164414    -0.71200
O303        O  0.37869242  0.38507705  0.06060427    -0.71200
O304        O  0.41879566  0.34190029  0.00207445    -0.71200
O305        O  0.37841908  0.38452391  0.00199135    -0.71200
O306        O  0.41899667  0.34241741  0.06096481    -0.71400
V307        V  0.36515895  0.33145044  0.03193335     1.35200
V308        V  0.39811545  0.36283081  0.03141055     1.35200
C309        C  0.40919050  0.31838188  0.07030255     0.78100
C310        C  0.35377192  0.37583948  0.99323234     0.78100
C311        C  0.40841674  0.31824286  0.99249259     0.78000
C312        C  0.35482239  0.37588941  0.07095493     0.78000
C313        C  0.83287192  0.79015393  0.42556973     0.30400
C314        C  0.84407099  0.78295675  0.39805879    -0.36000
C315        C  0.82346968  0.77943818  0.37574718     0.16400
C316        C  0.79394927  0.78323675  0.38017669     0.22200
C317        C  0.78276550  0.79014245  0.40772059    -0.34100
C318        C  0.80332757  0.79319230  0.43004829     0.16300
O319        O  0.84806499  0.79359095  0.44966958    -0.26100
C320        C  0.82809703  0.79878143  0.47005837     0.06100
C321        C  0.79978596  0.79834437  0.45893585    -0.31000
O322        O  0.77851354  0.77822500  0.35655832    -0.22800
C323        C  0.79826851  0.77076335  0.33667954    -0.02800
C324        C  0.82666911  0.77109325  0.34743871    -0.17200
H325        H  0.86720570  0.77973312  0.39445469     0.20800
H326        H  0.75955948  0.79240246  0.41159622     0.19100
H327        H  0.77940320  0.80062545  0.47056113     0.19100
H328        H  0.84665177  0.76546889  0.33621119     0.14900
C329        C  0.81893884  0.76312481  0.68608813     0.30400
C330        C  0.82925811  0.75188039  0.65964159    -0.36000
C331        C  0.83126984  0.77173106  0.63649027     0.16400
C332        C  0.82425292  0.80075641  0.63928171     0.22200
C333        C  0.81384643  0.81204196  0.66568796    -0.34100
C334        C  0.81129673  0.79208419  0.68871492     0.16300
O335        O  0.81337644  0.74801272  0.70988343    -0.26100
C336        C  0.80170970  0.76742047  0.72798618     0.06100
C337        C  0.79999649  0.79526959  0.71593102    -0.31000
O338        O  0.82673851  0.81513536  0.61456143    -0.22800
C339        C  0.83534986  0.79523186  0.59531093    -0.02800
C340        C  0.83805146  0.76763688  0.60797710    -0.17200
H341        H  0.83440699  0.72893027  0.65700867     0.20800
H342        H  0.80724214  0.83462107  0.66782741     0.19100
H343        H  0.79088194  0.81481664  0.72544027     0.19100
H344        H  0.84312972  0.74709271  0.59753488     0.14900
C345        C  0.74228028  0.90482188  0.45273677     0.30400
C346        C  0.74034805  0.88405529  0.47515273    -0.36000
C347        C  0.76675787  0.87149186  0.48422482     0.16400
C348        C  0.79325074  0.87879606  0.47204949     0.22200
C349        C  0.79515842  0.89931476  0.44939790    -0.34100
C350        C  0.76872953  0.91181267  0.44022935     0.16300
O351        O  0.72044399  0.91990332  0.44157744    -0.26100
C352        C  0.73294713  0.93652894  0.42135039     0.06100
C353        C  0.76296391  0.93228605  0.41941838    -0.31000
O354        O  0.81506514  0.86372385  0.48323379    -0.22800
C355        C  0.80251106  0.84664403  0.50307591    -0.02800
C356        C  0.77236343  0.85038726  0.50437711    -0.17200
H357        H  0.71968449  0.87814597  0.48488581     0.20800
H358        H  0.81580797  0.90502165  0.43950668     0.19100
H359        H  0.77837393  0.94342347  0.40545224     0.19100
H360        H  0.75662959  0.83809106  0.51689043     0.14900
C361        C  0.89968852  0.73378631  0.47785825     0.30400
C362        C  0.90914245  0.70593911  0.46935045    -0.36000
C363        C  0.93261440  0.70507578  0.44970845     0.16400
C364        C  0.94550111  0.72992759  0.43867539     0.22200
C365        C  0.93625622  0.75774567  0.44742444    -0.34100
C366        C  0.91321955  0.75858490  0.46751813     0.16300
O367        O  0.87816630  0.73971619  0.49604178    -0.26100
C368        C  0.87807504  0.76869834  0.49752900     0.06100
C369        C  0.89967837  0.78153867  0.48054155    -0.31000
O370        O  0.96715186  0.72408670  0.42063908    -0.22800
C371        C  0.96847717  0.69510722  0.42043032    -0.02800
C372        C  0.94758969  0.68212721  0.43819905    -0.17200
H373        H  0.89907018  0.68625826  0.47771709     0.20800
H374        H  0.94656455  0.77742410  0.43935880     0.19100
H375        H  0.90423910  0.80453578  0.47777948     0.19100
H376        H  0.94412010  0.65910847  0.44218090     0.14900
C377        C  0.90854738  0.73347767  0.57459337     0.30400
C378        C  0.92086039  0.70575900  0.57899728    -0.36000
C379        C  0.94133273  0.70354118  0.60162626     0.16400
C380        C  0.94892432  0.72696483  0.61883457     0.22200
C381        C  0.93687698  0.75465247  0.61421921    -0.34100
C382        C  0.91667637  0.75691290  0.59149949     0.16300
O383        O  0.88794622  0.74028138  0.55570304    -0.26100
C384        C  0.88292181  0.76847364  0.56050783     0.06100
C385        C  0.90050470  0.77998476  0.58231301    -0.31000
O386        O  0.96820831  0.72008437  0.63893717    -0.22800
C387        C  0.97331971  0.69192929  0.63449187    -0.02800
C388        C  0.95724425  0.68042200  0.61152567    -0.17200
H389        H  0.91465907  0.68713489  0.56589240     0.20800
H390        H  0.94269458  0.77317440  0.62763707     0.19100
H391        H  0.90030282  0.80189326  0.59105355     0.19100
H392        H  0.95737773  0.65830907  0.60330358     0.14900
C393        C  0.76421205  0.91314699  0.62276616     0.30400
C394        C  0.79234227  0.90380842  0.61492265    -0.36000
C395        C  0.79373167  0.88029008  0.59545274     0.16400
C396        C  0.76914526  0.86646282  0.58506116     0.22200
C397        C  0.74109217  0.87607188  0.59252685    -0.34100
C398        C  0.73968389  0.89996982  0.61141925     0.16300
O399        O  0.75771625  0.93493181  0.64034832    -0.26100
C400        C  0.72868211  0.93597729  0.63983451     0.06100
C401        C  0.71631027  0.91485047  0.62209128    -0.31000
O402        O  0.77538870  0.84445056  0.56776962    -0.22800
C403        C  0.80434807  0.84435235  0.56659177    -0.02800
C404        C  0.81697168  0.86639772  0.58316692    -0.17200
H405        H  0.81179057  0.91430837  0.62323566     0.20800
H406        H  0.72166396  0.86572332  0.58400503     0.19100
H407        H  0.69342030  0.91099704  0.61779500     0.19100
H408        H  0.83993837  0.87102687  0.58612525     0.14900
C409        C  0.81382027  0.19300081  0.42942627     0.30400
C410        C  0.79153635  0.19457360  0.40865497    -0.36000
C411        C  0.79996178  0.20328586  0.38068132     0.16400
C412        C  0.82833427  0.21029825  0.37356141     0.22200
C413        C  0.85090072  0.20748500  0.39413979    -0.34100
C414        C  0.84244013  0.19846374  0.42217012     0.16300
O415        O  0.81025003  0.18815253  0.45742034    -0.26100
C416        C  0.83697105  0.19006117  0.46863300     0.06100
C417        C  0.85802002  0.19564593  0.44730215    -0.31000
O418        O  0.83059377  0.22107657  0.34693630    -0.22800
C419        C  0.80336173  0.22030505  0.33674864    -0.02800
C420        C  0.78353196  0.20922537  0.35683178    -0.17200
H421        H  0.76896555  0.19053204  0.41424649     0.20800
H422        H  0.87323077  0.21316801  0.38904606     0.19100
H423        H  0.88132131  0.19800952  0.44970359     0.19100
H424        H  0.76007208  0.20760834  0.35482372     0.14900
C425        C  0.74510386  0.08685586  0.45508172     0.30400
C426        C  0.74435986  0.10659080  0.47832200    -0.36000
C427        C  0.77095066  0.11986395  0.48536771     0.16400
C428        C  0.79657083  0.11388785  0.47080811     0.22200
C429        C  0.79728496  0.09431058  0.44746023    -0.34100
C430        C  0.77063062  0.08134111  0.44013443     0.16300
O431        O  0.72282582  0.07193099  0.44481637    -0.26100
C432        C  0.73417313  0.05699670  0.42277565     0.06100
C433        C  0.76379192  0.06205231  0.41876841    -0.31000
O434        O  0.81871453  0.12930382  0.48055529    -0.22800
C435        C  0.80718696  0.14544251  0.50165069    -0.02800
C436        C  0.77742510  0.14063174  0.50539170    -0.17200
H437        H  0.72437432  0.11147804  0.48991694     0.20800
H438        H  0.81718148  0.08981688  0.43556328     0.19100
H439        H  0.77825395  0.05241764  0.40283257     0.19100
H440        H  0.76246645  0.15167497  0.51984198     0.14900
C441        C  0.93378426  0.28746426  0.44515635     0.30400
C442        C  0.90500788  0.28509960  0.45541489    -0.36000
C443        C  0.89887414  0.26065106  0.47277331     0.16400
C444        C  0.91974866  0.24014646  0.47989692     0.22200
C445        C  0.94838711  0.24232765  0.46938987    -0.34100
C446        C  0.95439046  0.26650150  0.45168377     0.16300
O447        O  0.94439589  0.30854345  0.42864756    -0.26100
C448        C  0.97197315  0.30063627  0.42421407     0.06100
C449        C  0.97938121  0.27466812  0.43790165    -0.31000
O450        O  0.90931484  0.21900179  0.49633462    -0.22800
C451        C  0.88132420  0.22587453  0.49957393    -0.02800
C452        C  0.87353240  0.25153108  0.48536230    -0.17200
H453        H  0.88847246  0.30113534  0.45006988     0.20800
H454        H  0.96481793  0.22612849  0.47447472     0.19100
H455        H  0.00029020  0.26369927  0.43800367     0.19100
H456        H  0.85224329  0.26172363  0.48433339     0.14900
C457        C  0.77071039  0.12933912  0.58633809     0.30400
C458        C  0.74358757  0.12385919  0.59949250    -0.36000
C459        C  0.73993804  0.09602769  0.61172724     0.16400
C460        C  0.76173134  0.07525625  0.61152082     0.22200
C461        C  0.78856902  0.08049548  0.59782050    -0.34100
C462        C  0.79201758  0.10810545  0.58518844     0.16300
O463        O  0.77901956  0.15394281  0.57391083    -0.26100
C464        C  0.80584495  0.14819231  0.56441596     0.06100
C465        C  0.81497946  0.11996578  0.57059801    -0.31000
O466        O  0.75433156  0.05135990  0.62566027    -0.22800
C467        C  0.72725036  0.05663436  0.63456389    -0.02800
C468        C  0.71699832  0.08395027  0.62633820    -0.17200
H469        H  0.72659025  0.14023730  0.60032529     0.20800
H470        H  0.80568987  0.06425809  0.59729890     0.19100
H471        H  0.83564257  0.10988475  0.56533399     0.19100
H472        H  0.69612728  0.09380099  0.63133923     0.14900
C473        C  0.91156981  0.23900680  0.59528379     0.30400
C474        C  0.93016727  0.23942878  0.61948619    -0.36000
C475        C  0.94379100  0.26612657  0.62540679     0.16400
C476        C  0.93969270  0.29071373  0.60857170     0.22200
C477        C  0.92077043  0.29035839  0.58453859    -0.34100
C478        C  0.90697552  0.26365661  0.57872716     0.16300
O479        O  0.89644049  0.21644454  0.58599527    -0.26100
C480        C  0.88186657  0.22663588  0.56307819     0.06100
C481        C  0.88738148  0.25606611  0.55780627    -0.31000
O482        O  0.95541964  0.31306895  0.61763379    -0.22800
C483        C  0.96949716  0.30266152  0.64075326    -0.02800
C484        C  0.96297434  0.27364000  0.64664152    -0.17200
H485        H  0.93376684  0.22030426  0.63274960     0.20800
H486        H  0.91714392  0.30947306  0.57126253     0.19100
H487        H  0.87772690  0.27014474  0.54161188     0.19100
H488        H  0.97170254  0.25989668  0.66367269     0.14900
C489        C  0.82352198  0.39177456  0.22975694     0.30400
C490        C  0.81626213  0.36415169  0.21883831    -0.36000
C491        C  0.81413425  0.34163575  0.23947220     0.16400
C492        C  0.81913346  0.34589994  0.26874324     0.22200
C493        C  0.82613558  0.37356945  0.27962723    -0.34100
C494        C  0.82785767  0.39610984  0.25906249     0.16300
O495        O  0.82618997  0.41602669  0.21451935    -0.26100
C496        C  0.83225388  0.43636912  0.23424312     0.06100
C497        C  0.83296941  0.42505541  0.26243528    -0.31000
O498        O  0.81486078  0.32207618  0.28429675    -0.22800
C499        C  0.80673964  0.30224795  0.26481458    -0.02800
C500        C  0.80599177  0.31325818  0.23652670    -0.17200
H501        H  0.81204408  0.36059327  0.19599281     0.20800
H502        H  0.82942062  0.37738860  0.30262678     0.19100
H503        H  0.83637380  0.43655689  0.28268233     0.19100
H504        H  0.79949149  0.30223691  0.21681222     0.14900
C505        C  0.83590411  0.60619610  0.23754157     0.30400
C506        C  0.84721378  0.63335471  0.24635007    -0.36000
C507        C  0.82676347  0.65606885  0.24944873     0.16400
C508        C  0.79751241  0.65225629  0.24357358     0.22200
C509        C  0.78632222  0.62526484  0.23495862    -0.34100
C510        C  0.80652983  0.60259778  0.23254471     0.16300
O511        O  0.85054401  0.58153811  0.23470519    -0.26100
C512        C  0.83025410  0.56181218  0.22794304     0.06100
C513        C  0.80239347  0.57392522  0.22682885    -0.31000
O514        O  0.78195785  0.67569000  0.24882878    -0.22800
C515        C  0.80117412  0.69499434  0.25862706    -0.02800
C516        C  0.82956930  0.68402503  0.25952426    -0.17200
H517        H  0.87003881  0.63628571  0.25129713     0.20800
H518        H  0.76326028  0.62194701  0.23129940     0.19100
H519        H  0.78177262  0.56304378  0.22329481     0.19100
H520        H  0.84911405  0.69475045  0.26708670     0.14900
C521        C  0.76822800  0.44741593  0.16044705     0.30400
C522        C  0.74050125  0.44019484  0.14963830    -0.36000
C523        C  0.73992269  0.42025300  0.12649394     0.16400
C524        C  0.76489578  0.40795430  0.11505959     0.22200
C525        C  0.79259730  0.41563496  0.12545934    -0.34100
C526        C  0.79318344  0.43584309  0.14828436     0.16300
O527        O  0.77392814  0.46509828  0.18235943    -0.26100
C528        C  0.80292584  0.46496340  0.18408839     0.06100
C529        C  0.81602218  0.44752305  0.16310202    -0.31000
O530        O  0.75932815  0.38933261  0.09394597    -0.22800
C531        C  0.73042919  0.38998396  0.09149570    -0.02800
C532        C  0.71719620  0.40895079  0.11107268    -0.17200
H533        H  0.72072051  0.44941370  0.15872435     0.20800
H534        H  0.81237404  0.40640770  0.11641205     0.19100
H535        H  0.83906814  0.44359968  0.15975543     0.19100
H536        H  0.69416265  0.41357009  0.11363523     0.14900
C537        C  0.90431920  0.45163133  0.29454811     0.30400
C538        C  0.91519577  0.44533248  0.32236851    -0.36000
C539        C  0.93632987  0.42327703  0.32391963     0.16400
C540        C  0.94581118  0.40811417  0.29979748     0.22200
C541        C  0.93501917  0.41453702  0.27193036    -0.34100
C542        C  0.91417166  0.43688756  0.27034665     0.16300
O543        O  0.88395058  0.47090479  0.28822518    -0.26100
C544        C  0.88092241  0.46887463  0.25953050     0.06100
C545        C  0.89921161  0.44799476  0.24725770    -0.31000
O546        O  0.96574473  0.38837114  0.30627626    -0.22800
C547        C  0.96928551  0.39114276  0.33487188    -0.02800
C548        C  0.95159449  0.41256094  0.34698248    -0.17200
H549        H  0.90768726  0.45687809  0.34152397     0.20800
H550        H  0.94241691  0.40294561  0.25278919     0.19100
H551        H  0.90042541  0.44128740  0.22473117     0.19100
H552        H  0.95038154  0.41938812  0.36949950     0.14900
C553        C  0.76694941  0.54279447  0.15649367     0.30400
C554        C  0.73889769  0.54790757  0.14530782    -0.36000
C555        C  0.73661616  0.57025012  0.12452691     0.16400
C556        C  0.76029233  0.58650490  0.11552941     0.22200
C557        C  0.78836882  0.58106409  0.12635402    -0.34100
C558        C  0.79065364  0.55869269  0.14701021     0.16300
O559        O  0.77386967  0.52411455  0.17721380    -0.26100
C560        C  0.80241860  0.52795733  0.18092250     0.06100
C561        C  0.81402566  0.54908803  0.16252927    -0.31000
O562        O  0.75312934  0.60688973  0.09660371    -0.22800
C563        C  0.72452049  0.60355247  0.09320289    -0.02800
C564        C  0.71305046  0.58098171  0.10991388    -0.17200
H565        H  0.72010277  0.53568592  0.15267336     0.20800
H566        H  0.80705222  0.59373268  0.11951420     0.19100
H567        H  0.83623442  0.55699878  0.16165485     0.19100
H568        H  0.69062192  0.57373908  0.11123432     0.14900
C569        C  0.91261603  0.56064485  0.26962374     0.30400
C570        C  0.93570859  0.58070037  0.26829119    -0.36000
C571        C  0.94790090  0.58889222  0.29506800     0.16400
C572        C  0.93844561  0.57768021  0.32130117     0.22200
C573        C  0.91499246  0.55808042  0.32263935    -0.34100
C574        C  0.90241088  0.55037883  0.29593269     0.16300
O575        O  0.89820184  0.54974146  0.24730932    -0.26100
C576        C  0.87822388  0.53255636  0.25951494     0.06100
C577        C  0.87954099  0.53255374  0.28973625    -0.31000
O578        O  0.95341392  0.58782554  0.34361772    -0.22800
C579        C  0.97236420  0.60617841  0.33156750    -0.02800
C580        C  0.96985837  0.60782255  0.30144719    -0.17200
H581        H  0.94357202  0.58934324  0.24784473     0.20800
H582        H  0.90705248  0.54948205  0.34309314     0.19100
H583        H  0.86568886  0.52100108  0.30492897     0.19100
H584        H  0.98260589  0.62082647  0.28647051     0.14900
C585        C  0.15248055  0.24325464  0.59398500     0.30400
C586        C  0.13041693  0.24084175  0.61508411    -0.36000
C587        C  0.11713002  0.26703434  0.62373711     0.16400
C588        C  0.12485271  0.29372842  0.61220482     0.22200
C589        C  0.14728073  0.29617879  0.59156917    -0.34100
C590        C  0.16064529  0.27004538  0.58306817     0.16300
O591        O  0.16773292  0.22163850  0.58265205    -0.26100
C592        C  0.18572508  0.23471369  0.56397086     0.06100
C593        C  0.18270882  0.26491521  0.56395105    -0.31000
O594        O  0.10898510  0.31529945  0.62267359    -0.22800
C595        C  0.09112809  0.30236892  0.64151659    -0.02800
C596        C  0.09527868  0.27235851  0.64318293    -0.17200
H597        H  0.12396644  0.21996285  0.62404854     0.20800
H598        H  0.15373908  0.31706365  0.58257010     0.19100
H599        H  0.19546820  0.28086566  0.55210824     0.19100
H600        H  0.08347310  0.25672613  0.65633658     0.14900
C601        C  0.27508305  0.12697420  0.59549091     0.30400
C602        C  0.27293437  0.10435013  0.61596131    -0.36000
C603        C  0.29926643  0.09122939  0.62440069     0.16400
C604        C  0.32594035  0.09951707  0.61323378     0.22200
C605        C  0.32816968  0.12286373  0.59344110    -0.34100
C606        C  0.30177586  0.13620969  0.58522312     0.16300
O607        O  0.25311339  0.14153248  0.58396293    -0.26100
C608        C  0.26574722  0.16075553  0.56627337     0.06100
C609        C  0.29610061  0.15872806  0.56659717    -0.31000
O610        O  0.34756015  0.08306477  0.62298536    -0.22800
C611        C  0.33455864  0.06433422  0.64100345    -0.02800
C612        C  0.30457683  0.06861118  0.64289645    -0.17200
H613        H  0.25211397  0.09718599  0.62441158     0.20800
H614        H  0.34894899  0.12982401  0.58470633     0.19100
H615        H  0.31178879  0.17215408  0.55529138     0.19100
H616        H  0.28889216  0.05626215  0.65545660     0.14900
C617        C  0.32590711  0.10238217  0.45094123     0.30400
C618        C  0.32810812  0.12680718  0.46920225    -0.36000
C619        C  0.30175492  0.13755385  0.48047209     0.16400
C620        C  0.27515861  0.12482678  0.47459790     0.22200
C621        C  0.27287875  0.10087434  0.45580244    -0.34100
C622        C  0.29914616  0.09046639  0.44410543     0.16300
O623        O  0.34776520  0.08823011  0.43869044    -0.26100
C624        C  0.33475918  0.06742079  0.42328244     0.06100
C625        C  0.30452960  0.06788448  0.42566099    -0.31000
O626        O  0.25335695  0.13817343  0.48769910    -0.22800
C627        C  0.26607475  0.15984390  0.50210659    -0.02800
C628        C  0.29611476  0.16089834  0.49789633    -0.17200
H629        H  0.34889706  0.13667791  0.47432603     0.20800
H630        H  0.25207410  0.09106481  0.45063824     0.19100
H631        H  0.28893661  0.05304617  0.41606834     0.19100
H632        H  0.31141882  0.17700895  0.50568684     0.14900
C633        C  0.12009861  0.26996088  0.43765352     0.30400
C634        C  0.13425029  0.24313745  0.44228106    -0.36000
C635        C  0.15352730  0.24199533  0.46603385     0.16400
C636        C  0.15878346  0.26568380  0.48366030     0.22200
C637        C  0.14453893  0.29232257  0.47921250    -0.34100
C638        C  0.12509901  0.29338762  0.45575804     0.16300
O639        O  0.10076365  0.27594941  0.41715723    -0.26100
C640        C  0.09322763  0.30348995  0.42246386     0.06100
C641        C  0.10770820  0.31536890  0.44618871    -0.31000
O642        O  0.17829340  0.26021664  0.50393500    -0.22800
C643        C  0.18553892  0.23250733  0.49976324    -0.02800
C644        C  0.17064642  0.22000218  0.47642702    -0.17200
H645        H  0.13043667  0.22448252  0.42843520     0.20800
H646        H  0.14834697  0.31094053  0.49311189     0.19100
H647        H  0.10543258  0.33698922  0.45527865     0.19100
H648        H  0.17276423  0.19811921  0.46794528     0.14900
C649        C  0.25382809  0.23740519  0.37986386     0.30400
C650        C  0.24663452  0.24961509  0.40683469    -0.36000
C651        C  0.24314894  0.22994917  0.42989281     0.16400
C652        C  0.24617883  0.20023240  0.42670464     0.22200
C653        C  0.25358765  0.18797183  0.39970831    -0.34100
C654        C  0.25740424  0.20772375  0.37663346     0.16300
O655        O  0.25903701  0.25192293  0.35567808    -0.26100
C656        C  0.26632950  0.23138320  0.33662346     0.06100
C657        C  0.26569525  0.20341218  0.34848468    -0.31000
O658        O  0.24208205  0.18600707  0.45135808    -0.22800
C659        C  0.23638367  0.20689080  0.47065309    -0.02800
C660        C  0.23712463  0.23467111  0.45839430    -0.17200
H661        H  0.24433511  0.27296274  0.40974766     0.20800
H662        H  0.25658682  0.16473468  0.39699769     0.19100
H663        H  0.27103338  0.18297885  0.33804558     0.19100
H664        H  0.23389936  0.25546577  0.46909076     0.14900
C665        C  0.38258721  0.20576475  0.26206538     0.30400
C666        C  0.41025386  0.19950467  0.27309871    -0.36000
C667        C  0.43247108  0.19677071  0.25256328     0.16400
C668        C  0.42785943  0.19920498  0.22303667     0.22200
C669        C  0.40004389  0.20560224  0.21187929    -0.34100
C670        C  0.37777834  0.20907090  0.23260139     0.16300
O671        O  0.35948091  0.21181265  0.27778000    -0.26100
C672        C  0.33949857  0.21950382  0.25836287     0.06100
C673        C  0.34957029  0.21814046  0.22977870    -0.31000
O674        O  0.45218853  0.19630108  0.20798617    -0.22800
C675        C  0.47257052  0.19212443  0.22823255    -0.02800
C676        C  0.46143368  0.19275344  0.25634275    -0.17200
H677        H  0.41439421  0.19801127  0.29625782     0.20800
H678        H  0.39627622  0.20868382  0.18883786     0.19100
H679        H  0.33828938  0.22437828  0.21006251     0.19100
H680        H  0.47312229  0.19075571  0.27672084     0.14900
C681        C  0.68845848  0.23022347  0.24040107     0.30400
C682        C  0.66136644  0.24171942  0.23221145    -0.36000
C683        C  0.63859149  0.22161951  0.22948029     0.16400
C684        C  0.64226037  0.19214203  0.23371706     0.22200
C685        C  0.66941946  0.18056848  0.24201259    -0.34100
C686        C  0.69215636  0.20080394  0.24545989     0.16300
O687        O  0.71193195  0.24550588  0.24648134    -0.26100
C688        C  0.73101155  0.22583470  0.25596269     0.06100
C689        C  0.71991457  0.19753693  0.25573304    -0.31000
O690        O  0.61764265  0.17756326  0.23082068    -0.22800
C691        C  0.59775374  0.19790132  0.22484800    -0.02800
C692        C  0.60975732  0.22583366  0.22424813    -0.17200
H693        H  0.65801918  0.26488065  0.22928071     0.20800
H694        H  0.67231713  0.15757808  0.24651246     0.19100
H695        H  0.73033100  0.17768211  0.26312176     0.19100
H696        H  0.59875023  0.24646976  0.22137299     0.14900
C697        C  0.47822384  0.25919540  0.16208591     0.30400
C698        C  0.46759541  0.28706769  0.15521477    -0.36000
C699        C  0.45098474  0.28924307  0.12968088     0.16400
C700        C  0.44450861  0.26544401  0.11253655     0.22200
C701        C  0.45527701  0.23759238  0.11931604    -0.34100
C702        C  0.47257030  0.23558120  0.14441660     0.16300
O703        O  0.49479304  0.25235950  0.18454318    -0.26100
C704        C  0.50033648  0.22413849  0.18090109     0.06100
C705        C  0.48703018  0.21251625  0.15633697    -0.31000
O706        O  0.42855974  0.27245338  0.08969107    -0.22800
C707        C  0.42528686  0.30118284  0.09193748    -0.02800
C708        C  0.43883613  0.31285018  0.11630506    -0.17200
H709        H  0.47241862  0.30587899  0.16857992     0.20800
H710        H  0.45090863  0.21887358  0.10565986     0.19100
H711        H  0.48781983  0.19026092  0.14859065     0.19100
H712        H  0.43948941  0.33539925  0.12317195     0.14900
C713        C  0.49131066  0.11875728  0.28956746     0.30400
C714        C  0.48735594  0.10638774  0.31721807    -0.36000
C715        C  0.46261826  0.08872666  0.32066606     0.16400
C716        C  0.44303120  0.08366687  0.29845718     0.22200
C717        C  0.44730551  0.09557158  0.27064847    -0.34100
C718        C  0.47218364  0.11302119  0.26716689     0.16300
O719        O  0.51163839  0.13771217  0.28216996    -0.26100
C720        C  0.50573283  0.14407712  0.25453804     0.06100
C721        C  0.48166814  0.12880108  0.24396186    -0.31000
O722        O  0.42106914  0.06700309  0.30666810    -0.22800
C723        C  0.42674393  0.06117120  0.33445891    -0.02800
C724        C  0.45236248  0.07403066  0.34430864    -0.17200
H725        H  0.50221160  0.11075686  0.33500893     0.20800
H726        H  0.43203401  0.09188260  0.25307242     0.19100
H727        H  0.47154097  0.13055376  0.22276905     0.19100
H728        H  0.46204761  0.07263119  0.36574708     0.14900
C729        C  0.58708289  0.12783316  0.29218268     0.30400
C730        C  0.59449917  0.11859890  0.32042754    -0.36000
C731        C  0.61400021  0.09498346  0.32229762     0.16400
C732        C  0.62578361  0.08180035  0.29802441     0.22200
C733        C  0.61793101  0.09065321  0.26988035    -0.34100
C734        C  0.59806874  0.11380838  0.26802992     0.16300
O735        O  0.56953311  0.14961952  0.28521493    -0.26100
C736        C  0.56910573  0.14927333  0.25622730     0.06100
C737        C  0.58609418  0.12715387  0.24443567    -0.31000
O738        O  0.64400205  0.06053930  0.30464454    -0.22800
C739        C  0.64363449  0.05966430  0.33356104    -0.02800
C740        C  0.62519669  0.08047535  0.34576003    -0.17200
H741        H  0.58564778  0.12906752  0.33960975     0.20800
H742        H  0.62667342  0.08013361  0.25069904     0.19100
H743        H  0.58952841  0.12211643  0.22170629     0.19100
H744        H  0.62085192  0.08440864  0.36857269     0.14900
C745        C  0.59503324  0.23685923  0.14678953     0.30400
C746        C  0.61838766  0.23638450  0.12711796    -0.36000
C747        C  0.62533341  0.26306119  0.11394904     0.16400
C748        C  0.61014556  0.28844048  0.11946041     0.22200
C749        C  0.58699903  0.28897926  0.13944318    -0.34100
C750        C  0.58019318  0.26230285  0.15277227     0.16300
O751        O  0.58545538  0.21459320  0.16217978    -0.26100
C752        C  0.56408508  0.22580192  0.17824988     0.06100
C753        C  0.56010215  0.25554948  0.17350233    -0.31000
O754        O  0.62000858  0.31073876  0.10419113    -0.22800
C755        C  0.64203343  0.29952492  0.08903283    -0.02800
C756        C  0.64641555  0.27000304  0.09432144    -0.17200
H757        H  0.63045845  0.21662900  0.12257683     0.20800
H758        H  0.57519206  0.30879892  0.14431751     0.19100
H759        H  0.54581311  0.27043909  0.18480188     0.19100
H760        H  0.66243907  0.25565060  0.08462536     0.14900
C761        C  0.24506403  0.33976610  0.24864410     0.30400
C762        C  0.22209421  0.35986560  0.24697752    -0.36000
C763        C  0.23007643  0.38877679  0.24129839     0.16400
C764        C  0.25863613  0.39735909  0.23784715     0.22200
C765        C  0.28157871  0.37715799  0.23861021    -0.34100
C766        C  0.27358427  0.34815687  0.24391914     0.16300
O767        O  0.24282764  0.31217295  0.25624009    -0.26100
C768        C  0.27019024  0.30258147  0.25573075     0.06100
C769        C  0.29025401  0.32395353  0.24791398    -0.31000
O770        O  0.26112185  0.42560188  0.23366704    -0.22800
C771        C  0.23374758  0.43541099  0.23397178    -0.02800
C772        C  0.21351044  0.41316218  0.23833421    -0.17200
H773        H  0.19964364  0.35353627  0.25057244     0.20800
H774        H  0.30406526  0.38366975  0.23579350     0.19100
H775        H  0.31379082  0.32239869  0.24750025     0.19100
H776        H  0.19000325  0.41404431  0.23813361     0.14900
C777        C  0.12649559  0.41838987  0.32395848     0.30400
C778        C  0.15255046  0.43446751  0.32518782    -0.36000
C779        C  0.16227115  0.44644914  0.29878567     0.16400
C780        C  0.14701367  0.44337442  0.27309893     0.22200
C781        C  0.12122603  0.42699633  0.27179277    -0.34100
C782        C  0.11190499  0.41444941  0.29801146     0.16300
O783        O  0.11338966  0.40529139  0.34596739    -0.26100
C784        C  0.09049294  0.39232304  0.33378240     0.06100
C785        C  0.08856452  0.39710320  0.30399767    -0.31000
O786        O  0.16007424  0.45617844  0.25096533    -0.22800
C787        C  0.18431094  0.46712095  0.26246020    -0.02800
C788        C  0.18683731  0.46187274  0.29215776    -0.17200
H789        H  0.16457779  0.43716390  0.34526723     0.20800
H790        H  0.10946559  0.42390530  0.25162409     0.19100
H791        H  0.07199481  0.38942807  0.28910647     0.19100
H792        H  0.20438872  0.46819818  0.30656013     0.14900
C793        C  0.30416045  0.40579499  0.11984618     0.30400
C794        C  0.27715781  0.40830800  0.13407963    -0.36000
C795        C  0.27431875  0.43169326  0.15348830     0.16400
C796        C  0.29668689  0.45093248  0.15892888     0.22200
C797        C  0.32359121  0.44868683  0.14445116    -0.34100
C798        C  0.32632187  0.42553378  0.12470884     0.16300
O799        O  0.31140802  0.38568200  0.10068857    -0.26100
C800        C  0.33850229  0.39266343  0.09294610     0.06100
C801        C  0.34889896  0.41736249  0.10713474    -0.31000
O802        O  0.28952371  0.47070513  0.17841027    -0.22800
C803        C  0.26198632  0.46466796  0.18529317    -0.02800
C804        C  0.25140784  0.44049005  0.17024577    -0.17200
H805        H  0.25949603  0.39309855  0.13017951     0.20800
H806        H  0.34117574  0.46401174  0.14829128     0.19100
H807        H  0.36998499  0.42775882  0.10480005     0.19100
H808        H  0.22997478  0.43067067  0.17168035     0.14900
C809        C  0.32215449  0.57757065  0.12602572     0.30400
C810        C  0.32425372  0.55677183  0.14827843    -0.36000
C811        C  0.29788373  0.54831608  0.16114084     0.16400
C812        C  0.27119971  0.55902151  0.15230935     0.22200
C813        C  0.26912335  0.58027703  0.13046419    -0.34100
C814        C  0.29556711  0.58920254  0.11798573     0.16300
O815        O  0.34404478  0.58861086  0.11104935    -0.26100
C816        C  0.33137554  0.60798489  0.09362321     0.06100
C817        C  0.30126850  0.60937953  0.09701944    -0.31000
O818        O  0.24931157  0.54753372  0.16693820    -0.22800
C819        C  0.26212607  0.52910495  0.18529628    -0.02800
C820        C  0.29241193  0.52956105  0.18334176    -0.17200
H821        H  0.34503794  0.54787405  0.15517102     0.20800
H822        H  0.24835983  0.58931877  0.12376459     0.19100
H823        H  0.28585899  0.62295365  0.08539982     0.19100
H824        H  0.30816423  0.51813259  0.19670435     0.14900
C825        C  0.15900216  0.54663917  0.29477918     0.30400
C826        C  0.14774408  0.55294251  0.32247387    -0.36000
C827        C  0.12639439  0.57487192  0.32370535     0.16400
C828        C  0.11701709  0.58987992  0.29940669     0.22200
C829        C  0.12780648  0.58311864  0.27163690    -0.34100
C830        C  0.14878769  0.56085926  0.27037085     0.16300
O831        O  0.17998501  0.52785600  0.28872421    -0.26100
C832        C  0.18320821  0.52997696  0.26001125     0.06100
C833        C  0.16369660  0.54953900  0.24741140    -0.31000
O834        O  0.09714443  0.60978204  0.30561807    -0.22800
C835        C  0.09346285  0.60725450  0.33423549    -0.02800
C836        C  0.11100718  0.58579515  0.34659578    -0.17200
H837        H  0.15527764  0.54165392  0.34179919     0.20800
H838        H  0.12041550  0.59450544  0.25232749     0.19100
H839        H  0.16168949  0.55540694  0.22467782     0.19100
H840        H  0.11208249  0.57910384  0.36917653     0.14900
C841        C  0.26569305  0.65016228  0.24766977     0.30400
C842        C  0.27743823  0.62238333  0.24331856    -0.36000
C843        C  0.25725641  0.60002865  0.23898462     0.16400
C844        C  0.22758073  0.60465534  0.23826867     0.22200
C845        C  0.21572485  0.63248323  0.24299576    -0.34100
C846        C  0.23595074  0.65488028  0.24799018     0.16300
O847        O  0.28067934  0.67376847  0.25362998    -0.26100
C848        C  0.26041331  0.69392169  0.25825061     0.06100
C849        C  0.23208912  0.68347655  0.25515821    -0.31000
O850        O  0.21287809  0.58041194  0.23376332    -0.22800
C851        C  0.23334140  0.55992341  0.23187381    -0.02800
C852        C  0.26136385  0.57101854  0.23543349    -0.17200
H853        H  0.30071013  0.61837603  0.24393861     0.20800
H854        H  0.19241958  0.63625379  0.24337632     0.19100
H855        H  0.21178370  0.69502738  0.25851119     0.19100
H856        H  0.28184423  0.55931947  0.23569967     0.14900
C857        C  0.22189618  0.79225810  0.42417036     0.30400
C858        C  0.21148798  0.78155235  0.39747497    -0.36000
C859        C  0.23272225  0.77658544  0.37596964     0.16400
C860        C  0.26195696  0.78210818  0.38048162     0.22200
C861        C  0.27231594  0.79233402  0.40714488    -0.34100
C862        C  0.25124013  0.79701218  0.42854935     0.16300
O863        O  0.20625493  0.79793516  0.44760763    -0.26100
C864        C  0.22592385  0.80645515  0.46719040     0.06100
C865        C  0.25428532  0.80578556  0.45643158    -0.31000
O866        O  0.27803089  0.77640474  0.35756119    -0.22800
C867        C  0.25905794  0.76678087  0.33797515    -0.02800
C868        C  0.23045403  0.76621701  0.34823469    -0.17200
H869        H  0.18862690  0.77722077  0.39383446     0.20800
H870        H  0.29526402  0.79623805  0.41097945     0.19100
H871        H  0.27445524  0.81022016  0.46780342     0.19100
H872        H  0.21095993  0.75953254  0.33687149     0.14900
C873        C  0.12482103  0.71055737  0.44911248     0.30400
C874        C  0.15026468  0.71068723  0.46613689    -0.36000
C875        C  0.15919043  0.73794101  0.47677348     0.16400
C876        C  0.14390828  0.76330112  0.47137574     0.22200
C877        C  0.11879386  0.76326111  0.45394567    -0.34100
C878        C  0.11013678  0.73610358  0.44295593     0.16300
O879        O  0.11230596  0.68751451  0.43723028    -0.26100
C880        C  0.08966134  0.69859692  0.42285003     0.06100
C881        C  0.08734845  0.72868402  0.42551373    -0.31000
O882        O  0.15582507  0.78625497  0.48389854    -0.22800
C883        C  0.17905377  0.77548907  0.49754977    -0.02800
C884        C  0.18253044  0.74563975  0.49342952    -0.17200
H885        H  0.16229014  0.69085744  0.47080920     0.20800
H886        H  0.10680768  0.78309247  0.44924480     0.19100
H887        H  0.07088752  0.74291315  0.41632912     0.19100
H888        H  0.19971799  0.73169740  0.50169655     0.14900
C889        C  0.29489366  0.92163323  0.43859792     0.30400
C890        C  0.26709792  0.90914370  0.44204373    -0.36000
C891        C  0.26420685  0.88905489  0.46494683     0.16400
C892        C  0.28714706  0.88168076  0.48290862     0.22200
C893        C  0.31476514  0.89417868  0.47954570    -0.34100
C894        C  0.31759909  0.91438457  0.45693615     0.16300
O895        O  0.30265706  0.94100544  0.41880858    -0.26100
C896        C  0.33058258  0.94629616  0.42481236     0.06100
C897        C  0.34099058  0.93038154  0.44831892    -0.31000
O898        O  0.27999465  0.86203564  0.50245029    -0.22800
C899        C  0.25200484  0.85674804  0.49734926    -0.02800
C900        C  0.24093691  0.87298068  0.47416758    -0.17200
H901        H  0.24905231  0.91470060  0.42791795     0.20800
H902        H  0.33282350  0.88851998  0.49364147     0.19100
H903        H  0.36266941  0.93057698  0.45765324     0.19100
H904        H  0.21914979  0.87247983  0.46513865     0.14900
C905        C  0.15513635  0.73957770  0.57499323     0.30400
C906        C  0.14099727  0.71252102  0.57670403    -0.36000
C907        C  0.12334350  0.70814296  0.60123692     0.16400
C908        C  0.11999974  0.72892815  0.62265401     0.22200
C909        C  0.13403800  0.75600338  0.62085988    -0.34100
C910        C  0.15146886  0.76041894  0.59623618     0.16300
O911        O  0.17267266  0.74830550  0.55402032    -0.26100
C912        C  0.18024626  0.77518834  0.56172984     0.06100
C913        C  0.16744111  0.78387349  0.58780412    -0.31000
O914        O  0.10219678  0.72043774  0.64348338    -0.22800
C915        C  0.09395733  0.69388942  0.63532427    -0.02800
C916        C  0.10639452  0.68507640  0.60918640    -0.17200
H917        H  0.14346480  0.69609935  0.55997993     0.20800
H918        H  0.13137094  0.77256432  0.63741125     0.19100
H919        H  0.16966948  0.80450330  0.59896742     0.19100
H920        H  0.10308099  0.66483621  0.59757819     0.14900
C921        C  0.26727555  0.88729905  0.58914917     0.30400
C922        C  0.26649918  0.91042950  0.60909080    -0.36000
C923        C  0.29355211  0.91991584  0.61977947     0.16400
C924        C  0.31970521  0.90794944  0.61096609     0.22200
C925        C  0.32043381  0.88433424  0.59147010    -0.34100
C926        C  0.29328445  0.87442761  0.58124049     0.16300
O927        O  0.24450230  0.87495058  0.57667259    -0.26100
C928        C  0.25592760  0.85357212  0.56080873     0.06100
C929        C  0.28619823  0.85200899  0.56306880    -0.31000
O930        O  0.34243963  0.92120893  0.62273595    -0.22800
C931        C  0.33062609  0.94152754  0.63977683    -0.02800
C932        C  0.30029285  0.94153973  0.63893979    -0.17200
H933        H  0.24618016  0.92032159  0.61584901     0.20800
H934        H  0.34076217  0.87437538  0.58473202     0.19100
H935        H  0.30076737  0.83649256  0.55288079     0.19100
H936        H  0.28544363  0.95604366  0.65009635     0.14900
C937        C  0.42298710  0.79406100  0.22752950     0.30400
C938        C  0.39576376  0.78560019  0.21644737    -0.36000
C939        C  0.37374685  0.78104287  0.23714715     0.16400
C940        C  0.37821600  0.78504358  0.26655795     0.22200
C941        C  0.40543133  0.79319051  0.27756531    -0.34100
C942        C  0.42746153  0.79722875  0.25697707     0.16300
O943        O  0.44685286  0.79882536  0.21233264    -0.26100
C944        C  0.46698131  0.80494957  0.23224346     0.06100
C945        C  0.45604270  0.80380053  0.26048075    -0.31000
O946        O  0.35498990  0.77901035  0.28214766    -0.22800
C947        C  0.33535061  0.77067859  0.26263458    -0.02800
C948        C  0.34577429  0.77146783  0.23418386    -0.17200
H949        H  0.39218688  0.78228037  0.19341760     0.20800
H950        H  0.40930473  0.79564752  0.30069085     0.19100
H951        H  0.46760799  0.80698159  0.28076913     0.19100
H952        H  0.33459043  0.76541817  0.21439313     0.14900
C953        C  0.68615944  0.79263941  0.24868855     0.30400
C954        C  0.66707092  0.81554098  0.24164014    -0.36000
C955        C  0.63790433  0.80762780  0.23668381     0.16400
C956        C  0.62819356  0.77928168  0.23881079     0.22200
C957        C  0.64734860  0.75634777  0.24501180    -0.34100
C958        C  0.67647727  0.76417127  0.24963790     0.16300
O959        O  0.71402687  0.79499858  0.25561748    -0.26100
C960        C  0.72226065  0.76757768  0.26040746     0.06100
C961        C  0.69984138  0.74754056  0.25686243    -0.31000
O962        O  0.59989274  0.77694805  0.23473373    -0.22800
C963        C  0.59113583  0.80414714  0.22977025    -0.02800
C964        C  0.61410498  0.82407729  0.23003496    -0.17200
H965        H  0.67429891  0.83796871  0.24064498     0.20800
H966        H  0.63996836  0.73401730  0.24658277     0.19100
H967        H  0.70049204  0.72421272  0.26025033     0.19100
H968        H  0.61381204  0.84709391  0.22535387     0.14900
C969        C  0.43771830  0.73434392  0.11744210     0.30400
C970        C  0.44501549  0.76250441  0.12682721    -0.36000
C971        C  0.46635440  0.76428722  0.14860219     0.16400
C972        C  0.47907881  0.74001785  0.16098293     0.22200
C973        C  0.47228821  0.71184547  0.15112246    -0.34100
C974        C  0.45139770  0.71007606  0.12883203     0.16300
O975        O  0.41850914  0.72770562  0.09712642    -0.26100
C976        C  0.42018218  0.69882457  0.09508376     0.06100
C977        C  0.44039953  0.68668874  0.11418401    -0.31000
O978        O  0.49726804  0.74677161  0.18220765    -0.22800
C979        C  0.49659093  0.77578978  0.18307273    -0.02800
C980        C  0.47811658  0.78781270  0.16225034    -0.17200
H981        H  0.43476517  0.78175792  0.11771935     0.20800
H982        H  0.48256013  0.69258967  0.16026128     0.19100
H983        H  0.44615901  0.66392365  0.11681851     0.19100
H984        H  0.47325344  0.81061904  0.15856622     0.14900
C985        C  0.48350007  0.87990415  0.29411635     0.30400
C986        C  0.48017074  0.89297928  0.32154236    -0.36000
C987        C  0.45636980  0.91202872  0.32460698     0.16400
C988        C  0.43712488  0.91770686  0.30223195     0.22200
C989        C  0.44062842  0.90484383  0.27477568    -0.34100
C990        C  0.46449422  0.88596133  0.27168598     0.16300
O991        O  0.50363407  0.86073692  0.28667723    -0.26100
C992        C  0.49766647  0.85449943  0.25901715     0.06100
C993        C  0.47359262  0.86983995  0.24855087    -0.31000
O994        O  0.41646104  0.93624020  0.30975743    -0.22800
C995        C  0.42252872  0.94266462  0.33730539    -0.02800
C996        C  0.44716423  0.92825701  0.34770425    -0.17200
H997        H  0.49504011  0.88848711  0.33931388     0.20800
H998        H  0.42571132  0.90921759  0.25703649     0.19100
H999        H  0.46373119  0.86856878  0.22720719     0.19100
H1000       H  0.45705192  0.92985155  0.36903307     0.14900
C1001       C  0.57425125  0.73956867  0.15787523     0.30400
C1002       C  0.57716077  0.71188082  0.14515007    -0.36000
C1003       C  0.60032322  0.70851724  0.12541702     0.16400
C1004       C  0.61940043  0.73084938  0.11889444     0.22200
C1005       C  0.61621331  0.75860183  0.13127737    -0.34100
C1006       C  0.59297265  0.76198211  0.15079758     0.16300
O1007       O  0.55459695  0.74740089  0.17733389    -0.26100
C1008       C  0.56053659  0.77530905  0.18261869     0.06100
C1009       C  0.58419632  0.78550351  0.16652846    -0.31000
O1010       O  0.63982763  0.72287478  0.10035885    -0.22800
C1011       C  0.63373153  0.69511098  0.09466650    -0.02800
C1012       C  0.60925637  0.68501345  0.10952341    -0.17200
H1013       H  0.56246678  0.69413722  0.15040838     0.20800
H1014       H  0.63096937  0.77632049  0.12615631     0.19100
H1015       H  0.59374925  0.80707592  0.16671724     0.19100
H1016       H  0.59957974  0.66349845  0.10879163     0.14900
C1017       C  0.58894612  0.88666652  0.27066923     0.30400
C1018       C  0.60844544  0.91014940  0.26937415    -0.36000
C1019       C  0.62066395  0.91884620  0.29588885     0.16400
C1020       C  0.61353567  0.90589701  0.32206193     0.22200
C1021       C  0.59447406  0.88197583  0.32327309    -0.34100
C1022       C  0.58287539  0.87274203  0.29659775     0.16300
O1023       O  0.57558070  0.87462393  0.24837205    -0.26100
C1024       C  0.56129878  0.85225291  0.25997709     0.06100
C1025       C  0.56509227  0.84991684  0.28991539    -0.31000
O1026       O  0.62652098  0.91849787  0.34434659    -0.22800
C1027       C  0.64266157  0.93928283  0.33214237    -0.02800
C1028       C  0.64007447  0.94037910  0.30206590    -0.17200
H1029       H  0.61391802  0.92075732  0.24900701     0.20800
H1030       H  0.58920023  0.87117951  0.34360705     0.19100
H1031       H  0.55624664  0.83357723  0.30448656     0.19100
H1032       H  0.65022025  0.95555277  0.28709907     0.14900
C1033       C  0.25968512  0.78279693  0.67987525     0.30400
C1034       C  0.24949677  0.80684410  0.66394239    -0.36000
C1035       C  0.24244018  0.80146999  0.63477045     0.16400
C1036       C  0.24537417  0.77436840  0.62217580     0.22200
C1037       C  0.25501648  0.75025302  0.63818506    -0.34100
C1038       C  0.26184999  0.75555995  0.66734395     0.16300
O1039       O  0.26806988  0.78285707  0.70730744    -0.26100
C1040       C  0.27520700  0.75520852  0.71242034     0.06100
C1041       C  0.27170361  0.73725100  0.68838194    -0.31000
O1042       O  0.23836396  0.77437796  0.59446534    -0.22800
C1043       C  0.23080531  0.80183995  0.58906703    -0.02800
C1044       C  0.23244582  0.81960117  0.61354578    -0.17200
H1045       H  0.24745886  0.82831400  0.67355239     0.20800
H1046       H  0.25721340  0.72885257  0.62850775     0.19100
H1047       H  0.27620222  0.71415442  0.68662391     0.19100
H1048       H  0.22667168  0.84234558  0.61573599     0.14900
C1049       C  0.42667370  0.79194688  0.83859066     0.30400
C1050       C  0.39917390  0.78115876  0.84681509    -0.36000
C1051       C  0.37982035  0.77508388  0.82388933     0.16400
C1052       C  0.38705980  0.77966879  0.79509338     0.22200
C1053       C  0.41452624  0.78989714  0.78696879    -0.34100
C1054       C  0.43378278  0.79563082  0.80970086     0.16300
O1055       O  0.44851678  0.79866760  0.85604462    -0.26100
C1056       C  0.46978873  0.80672480  0.83797023     0.06100
C1057       C  0.46177192  0.80463638  0.80889363    -0.31000
O1058       O  0.36611155  0.77234420  0.77710234    -0.22800
C1059       C  0.34507456  0.76259608  0.79436844    -0.02800
C1060       C  0.35236075  0.76363689  0.82379967    -0.17200
H1061       H  0.39344080  0.77744395  0.86934000     0.20800
H1062       H  0.42059431  0.79285727  0.76439572     0.19100
H1063       H  0.47496350  0.80846350  0.78973466     0.19100
H1064       H  0.33952889  0.75660395  0.84226679     0.14900
C1065       C  0.62976646  0.80257965  0.81607243     0.30400
C1066       C  0.64879647  0.79867528  0.79258775    -0.36000
C1067       C  0.67741423  0.79083793  0.79969856     0.16400
C1068       C  0.68666146  0.78675733  0.82796574     0.22200
C1069       C  0.66773971  0.79150049  0.85154981    -0.34100
C1070       C  0.63908191  0.79960722  0.84441430     0.16300
O1071       O  0.60178233  0.80843556  0.81419893    -0.26100
C1072       C  0.59277678  0.80956828  0.84169021     0.06100
C1073       C  0.61530376  0.80466436  0.86150277    -0.31000
O1074       O  0.71369771  0.77693014  0.82936012    -0.22800
C1075       C  0.72197695  0.77528522  0.80163096    -0.02800
C1076       C  0.70028667  0.78384433  0.78228132    -0.17200
H1077       H  0.64157279  0.80083664  0.77028498     0.20800
H1078       H  0.67463220  0.78824860  0.87386142     0.19100
H1079       H  0.61452029  0.80473862  0.88501556     0.19100
H1080       H  0.70074501  0.78331357  0.75876521     0.14900
C1081       C  0.46735776  0.76591779  0.91950834     0.30400
C1082       C  0.44474345  0.76594911  0.94009054    -0.36000
C1083       C  0.43693590  0.73868528  0.95155105     0.16400
C1084       C  0.45074861  0.71315233  0.94372316     0.22200
C1085       C  0.47308583  0.71307642  0.92276605    -0.34100
C1086       C  0.48059694  0.74033795  0.91097123     0.16300
O1087       O  0.47791027  0.78893654  0.90588371    -0.26100
C1088       C  0.49805821  0.77805741  0.88808600     0.06100
C1089       C  0.50044340  0.74782889  0.89017264    -0.31000
O1090       O  0.44059305  0.69029774  0.95801535    -0.22800
C1091       C  0.41967663  0.70131237  0.97484199    -0.02800
C1092       C  0.41635287  0.73127784  0.97160716    -0.17200
H1093       H  0.43395518  0.78581873  0.94665165     0.20800
H1094       H  0.48385926  0.69318869  0.91614308     0.19100
H1095       H  0.51413724  0.73333457  0.87766170     0.19100
H1096       H  0.40150375  0.74558430  0.98300174     0.14900
C1097       C  0.43694640  0.91841045  0.76746418     0.30400
C1098       C  0.44182831  0.90813621  0.79590540    -0.36000
C1099       C  0.46530150  0.88873746  0.79949113     0.16400
C1100       C  0.48255905  0.87985346  0.77661667     0.22200
C1101       C  0.47782861  0.89026051  0.74824651    -0.34100
C1102       C  0.45455438  0.90985192  0.74469121     0.16300
O1103       O  0.41651915  0.93700747  0.75924667    -0.26100
C1104       C  0.42118810  0.94059416  0.73085410     0.06100
C1105       C  0.44463405  0.92425073  0.72064022    -0.31000
O1106       O  0.50267618  0.86092563  0.78465174    -0.22800
C1107       C  0.49880056  0.85790156  0.81320728    -0.02800
C1108       C  0.47562160  0.87462583  0.82357851    -0.17200
H1109       H  0.42830409  0.91484591  0.81397903     0.20800
H1110       H  0.49139274  0.88353521  0.73017735     0.19100
H1111       H  0.45332686  0.92343150  0.69875891     0.19100
H1112       H  0.46719046  0.87558358  0.84552828     0.14900
C1113       C  0.57879850  0.87993921  0.77749054     0.30400
C1114       C  0.58288503  0.89074415  0.74927475    -0.36000
C1115       C  0.60644097  0.90978326  0.74548049     0.16400
C1116       C  0.62493180  0.91750189  0.76785614     0.22200
C1117       C  0.62063099  0.90688944  0.79622404    -0.34100
C1118       C  0.59679631  0.88806983  0.80007553     0.16300
O1119       O  0.55858019  0.86129126  0.78561455    -0.26100
C1120       C  0.56308410  0.85774030  0.81394159     0.06100
C1121       C  0.58669456  0.87392399  0.82414848    -0.31000
O1122       O  0.64555908  0.93566507  0.75930521    -0.22800
C1123       C  0.64004238  0.93970779  0.73115200    -0.02800
C1124       C  0.61592757  0.92419730  0.72141100    -0.17200
H1125       H  0.56866151  0.88467334  0.73147392     0.20800
H1126       H  0.63483175  0.91292409  0.81404000     0.19100
H1127       H  0.59556755  0.87445626  0.84595417     0.19100
H1128       H  0.60656220  0.92389278  0.69979406     0.14900
C1129       C  0.58394019  0.76365291  0.92545447     0.30400
C1130       C  0.59784324  0.76218349  0.95258502    -0.36000
C1131       C  0.61195766  0.73584008  0.95906196     0.16400
C1132       C  0.61178907  0.71223582  0.94048180     0.22200
C1133       C  0.59825496  0.71387252  0.91313229    -0.34100
C1134       C  0.58472385  0.74048255  0.90635849     0.16300
O1135       O  0.56982397  0.78633518  0.91480741    -0.26100
C1136       C  0.56171355  0.77768971  0.88843425     0.06100
C1137       C  0.57066448  0.74949364  0.88184160    -0.31000
O1138       O  0.62585933  0.68954539  0.95128543    -0.22800
C1139       C  0.63569407  0.69905608  0.97677734    -0.02800
C1140       C  0.62780933  0.72767160  0.98272713    -0.17200
H1141       H  0.59791263  0.78041313  0.96747393     0.20800
H1142       H  0.59848706  0.69576436  0.89808253     0.19100
H1143       H  0.56726516  0.73750006  0.86187960     0.19100
H1144       H  0.63267732  0.74036887  0.00193073     0.14900
C1145       C  0.24854605  0.24071607  0.68551357     0.30400
C1146       C  0.24259907  0.25234155  0.65801574    -0.36000
C1147       C  0.23919244  0.23210293  0.63559735     0.16400
C1148       C  0.24082279  0.20241239  0.63986509     0.22200
C1149       C  0.24698700  0.19071171  0.66742964    -0.34100
C1150       C  0.25104198  0.21103884  0.68986831     0.16300
O1151       O  0.25439399  0.25586871  0.70903341    -0.26100
C1152       C  0.26111459  0.23577155  0.72874968     0.06100
C1153       C  0.25943203  0.20743160  0.71808447    -0.31000
O1154       O  0.23740671  0.18767594  0.61548945    -0.22800
C1155       C  0.23374231  0.20822653  0.59533146    -0.02800
C1156       C  0.23513237  0.23627166  0.60672804    -0.17200
H1157       H  0.24159213  0.27559932  0.65419611     0.20800
H1158       H  0.24931559  0.16748240  0.67093481     0.19100
H1159       H  0.26459326  0.18726836  0.72921936     0.19100
H1160       H  0.23405140  0.25682223  0.59528720     0.14900
C1161       C  0.24006545  0.34318475  0.82090081     0.30400
C1162       C  0.21679389  0.36097095  0.82978589    -0.36000
C1163       C  0.22357923  0.39041408  0.83442557     0.16400
C1164       C  0.25121090  0.40154882  0.83024660     0.22200
C1165       C  0.27449822  0.38376396  0.82185455    -0.34100
C1166       C  0.26783951  0.35434706  0.81766309     0.16300
O1167       O  0.23865844  0.31526027  0.81423169    -0.26100
C1168       C  0.26603943  0.30850986  0.80737235     0.06100
C1169       C  0.28509078  0.33192779  0.80914515    -0.31000
O1170       O  0.25252711  0.42978150  0.83470932    -0.22800
C1171       C  0.22541401  0.43699923  0.84192361    -0.02800
C1172       C  0.20651405  0.41325109  0.84262248    -0.17200
H1173       H  0.19491282  0.35254948  0.83252769     0.20800
H1174       H  0.29622160  0.39231701  0.81857562     0.19100
H1175       H  0.30804949  0.33251692  0.80375975     0.19100
H1176       H  0.18370476  0.41268885  0.84850959     0.14900
C1177       C  0.24138439  0.60093519  0.83569433     0.30400
C1178       C  0.25405465  0.62755840  0.84352294    -0.36000
C1179       C  0.26059685  0.64646080  0.82048515     0.16400
C1180       C  0.25483843  0.63971680  0.79181789     0.22200
C1181       C  0.24250601  0.61298276  0.78400367    -0.34100
C1182       C  0.23618183  0.59405898  0.80700261     0.16300
O1183       O  0.23428413  0.57964880  0.85354112    -0.26100
C1184       C  0.22435346  0.55877883  0.83615082     0.06100
C1185       C  0.22546558  0.56659628  0.80686102    -0.31000
O1186       O  0.26240434  0.66070272  0.77385570    -0.22800
C1187       C  0.27340044  0.68110481  0.79117185    -0.02800
C1188       C  0.27291763  0.67338148  0.82045377    -0.17200
H1189       H  0.25872104  0.63300973  0.86592331     0.20800
H1190       H  0.23831156  0.60725347  0.76152176     0.19100
H1191       H  0.22022177  0.55350328  0.78799326     0.19100
H1192       H  0.28013418  0.68587506  0.83901209     0.14900
C1193       C  0.12437658  0.41692825  0.74520089     0.30400
C1194       C  0.14887217  0.43531815  0.74575911    -0.36000
C1195       C  0.15783679  0.44484173  0.77336616     0.16400
C1196       C  0.14325978  0.43740502  0.79857307     0.22200
C1197       C  0.11930964  0.41847047  0.79809548    -0.34100
C1198       C  0.11078461  0.40843024  0.77062945     0.16300
O1199       O  0.11165119  0.40599285  0.72184208    -0.26100
C1200       C  0.09009037  0.38982780  0.73264806     0.06100
C1201       C  0.08868810  0.39036630  0.76281461    -0.31000
O1202       O  0.15453680  0.44974756  0.82185426    -0.22800
C1203       C  0.17695354  0.46493266  0.81154994    -0.02800
C1204       C  0.18035174  0.46234908  0.78157997    -0.17200
H1205       H  0.16005805  0.44186985  0.72606320     0.20800
H1206       H  0.10800246  0.41212182  0.81777079     0.19100
H1207       H  0.07302902  0.37969139  0.77684881     0.19100
H1208       H  0.19674162  0.47238276  0.76788749     0.14900
C1209       C  0.29089791  0.45223863  0.90998519     0.30400
C1210       C  0.31944161  0.44774845  0.92020043    -0.36000
C1211       C  0.32299154  0.42511955  0.94051817     0.16400
C1212       C  0.30006876  0.40792928  0.94973816     0.22200
C1213       C  0.27161567  0.41250818  0.93964193    -0.34100
C1214       C  0.26803839  0.43530251  0.91971746     0.16300
O1215       O  0.28249914  0.47193237  0.89079312    -0.26100
C1216       C  0.25384246  0.46778100  0.88856338     0.06100
C1217       C  0.24371594  0.44523456  0.90608568    -0.31000
O1218       O  0.30809181  0.38814297  0.96887910    -0.22800
C1219       C  0.33649572  0.39276395  0.97227365    -0.02800
C1220       C  0.34704182  0.41554324  0.95520855    -0.17200
H1221       H  0.33753876  0.46104787  0.91295118     0.20800
H1222       H  0.25348554  0.39932794  0.94697727     0.19100
H1223       H  0.22167471  0.43703441  0.90797973     0.19100
H1224       H  0.36907884  0.42392378  0.95402558     0.14900
C1225       C  0.11424697  0.59040069  0.76557909     0.30400
C1226       C  0.12522441  0.58698937  0.79389700    -0.36000
C1227       C  0.14256867  0.56224544  0.79870720     0.16400
C1228       C  0.14866823  0.54232635  0.77712561     0.22200
C1229       C  0.13739463  0.54549944  0.74898223    -0.34100
C1230       C  0.12012988  0.57021051  0.74414732     0.16300
O1231       O  0.09760173  0.61189435  0.75618322    -0.26100
C1232       C  0.09274506  0.60531489  0.72841438     0.06100
C1233       C  0.10622048  0.57961861  0.71974558    -0.31000
O1234       O  0.16686578  0.52190990  0.78575304    -0.22800
C1235       C  0.17250990  0.52851424  0.81331678    -0.02800
C1236       C  0.15773616  0.55337734  0.82262776    -0.17200
H1237       H  0.12088372  0.60275077  0.81088132     0.20800
H1238       H  0.14221820  0.53000392  0.73186415     0.19100
H1239       H  0.10539409  0.56913016  0.69867246     0.19100
H1240       H  0.15918979  0.56411328  0.84352700     0.14900
C1241       C  0.28754751  0.54856887  0.91119470     0.30400
C1242       C  0.31572112  0.55442732  0.92164461    -0.36000
C1243       C  0.31792500  0.57643214  0.94271692     0.16400
C1244       C  0.29407565  0.59185516  0.95263095     0.22200
C1245       C  0.26581809  0.58556818  0.94261289    -0.34100
C1246       C  0.26359032  0.56331813  0.92179201     0.16300
O1247       O  0.28060289  0.52955386  0.89082497    -0.26100
C1248       C  0.25174467  0.53182412  0.88851144     0.06100
C1249       C  0.23997518  0.55226939  0.90757972    -0.31000
O1250       O  0.30123466  0.61190681  0.97193747    -0.22800
C1251       C  0.33002602  0.60911750  0.97464552    -0.02800
C1252       C  0.34154175  0.58725275  0.95711712    -0.17200
H1253       H  0.33467107  0.54275807  0.91372249     0.20800
H1254       H  0.24687611  0.59732104  0.95041207     0.19100
H1255       H  0.21734998  0.55862125  0.90991744     0.19100
H1256       H  0.36406331  0.58036922  0.95527785     0.14900
C1257       C  0.42727539  0.20538421  0.83792431     0.30400
C1258       C  0.40018825  0.21452565  0.84890810    -0.36000
C1259       C  0.37804272  0.21873067  0.82820541     0.16400
C1260       C  0.38218118  0.21373620  0.79889580     0.22200
C1261       C  0.40920372  0.20479856  0.78798885    -0.34100
C1262       C  0.43135910  0.20115689  0.80853988     0.16300
O1263       O  0.45147443  0.20146783  0.85297430    -0.26100
C1264       C  0.47134509  0.19475148  0.83291836     0.06100
C1265       C  0.45991729  0.19475779  0.80486319    -0.31000
O1266       O  0.35900097  0.21998751  0.78324129    -0.22800
C1267       C  0.33971300  0.22944389  0.80262649    -0.02800
C1268       C  0.35035673  0.22917677  0.83101471    -0.17200
H1269       H  0.39687497  0.21885695  0.87178244     0.20800
H1270       H  0.41293581  0.20172477  0.76493387     0.19100
H1271       H  0.47123857  0.19142448  0.78446530     0.19100
H1272       H  0.33954299  0.23627573  0.85066444     0.14900
C1273       C  0.44085670  0.08316098  0.76501680     0.30400
C1274       C  0.44643192  0.09458625  0.79284232    -0.36000
C1275       C  0.47007178  0.11396626  0.79500665     0.16400
C1276       C  0.48669957  0.12195213  0.77133315     0.22200
C1277       C  0.48142644  0.11023967  0.74364259    -0.34100
C1278       C  0.45808864  0.09057626  0.74154120     0.16300
O1279       O  0.41995575  0.06462144  0.75798565    -0.26100
C1280       C  0.42403624  0.05989240  0.72968366     0.06100
C1281       C  0.44750889  0.07542761  0.71835419    -0.31000
O1282       O  0.50649704  0.14172818  0.77784721    -0.22800
C1283       C  0.50319825  0.14614985  0.80626541    -0.02800
C1284       C  0.48075597  0.12931221  0.81807520    -0.17200
H1285       H  0.43316264  0.08886844  0.81149473     0.20800
H1286       H  0.49450170  0.11625359  0.72493826     0.19100
H1287       H  0.45565626  0.07542382  0.69624542     0.19100
H1288       H  0.47266115  0.12944081  0.84019507     0.14900
C1289       C  0.47259232  0.23748965  0.91435043     0.30400
C1290       C  0.45300543  0.23660982  0.93786484    -0.36000
C1291       C  0.44314859  0.26369839  0.94819606     0.16400
C1292       C  0.45237728  0.28987835  0.93660647     0.22200
C1293       C  0.47146637  0.29072209  0.91270173    -0.34100
C1294       C  0.48093023  0.26362746  0.90207766     0.16300
O1295       O  0.48458594  0.21483319  0.90126475    -0.26100
C1296       C  0.50071070  0.22659537  0.88017331     0.06100
C1297       C  0.49883242  0.25686544  0.87940566    -0.31000
O1298       O  0.44143232  0.31259834  0.95048197    -0.22800
C1299       C  0.42448027  0.30081563  0.97086019    -0.02800
C1300       C  0.42454726  0.27048505  0.97032950    -0.17200
H1301       H  0.44597828  0.21627008  0.94744216     0.20800
H1302       H  0.47854220  0.31104269  0.90315010     0.19100
H1303       H  0.50863830  0.27170741  0.86400870     0.19100
H1304       H  0.41324339  0.25566053  0.98476106     0.14900
C1305       C  0.62697470  0.08624100  0.76079682     0.30400
C1306       C  0.62448784  0.10005374  0.78793208    -0.36000
C1307       C  0.60111688  0.11956824  0.79099165     0.16400
C1308       C  0.58192863  0.12553491  0.76870013     0.22200
C1309       C  0.58427149  0.11159756  0.74164556    -0.34100
C1310       C  0.60730165  0.09167844  0.73873639     0.16300
O1311       O  0.64686419  0.06685300  0.75335698    -0.26100
C1312       C  0.63973604  0.05958638  0.72625901     0.06100
C1313       C  0.61519935  0.07424176  0.71606960    -0.31000
O1314       O  0.56177774  0.14454990  0.77624322    -0.22800
C1315       C  0.56750684  0.15043307  0.80397905    -0.02800
C1316       C  0.59196814  0.13555520  0.81424547    -0.17200
H1317       H  0.63951069  0.09560321  0.80554972     0.20800
H1318       H  0.56895431  0.11574902  0.72418345     0.19100
H1319       H  0.60472799  0.07228526  0.69505274     0.19100
H1320       H  0.60155867  0.13645772  0.83572705     0.14900
C1321       C  0.61592963  0.28959979  0.93533747     0.30400
C1322       C  0.59676594  0.29114941  0.91154677    -0.36000
C1323       C  0.58574842  0.26445175  0.90150793     0.16400
C1324       C  0.59271965  0.23814700  0.91431159     0.22200
C1325       C  0.61227116  0.23655314  0.93771206    -0.34100
C1326       C  0.62370137  0.26315309  0.94739409     0.16300
O1327       O  0.62831102  0.31182146  0.94869392    -0.26100
C1328       C  0.64470413  0.29935002  0.96911415     0.06100
C1329       C  0.64283165  0.26912545  0.96922764    -0.31000
O1330       O  0.57994778  0.21588679  0.90149591    -0.22800
C1331       C  0.56461244  0.22800396  0.88011278    -0.02800
C1332       C  0.56780714  0.25814399  0.87874413    -0.17200
H1333       H  0.59089394  0.31168433  0.90156635     0.20800
H1334       H  0.61826424  0.21601225  0.94756293     0.19100
H1335       H  0.65321107  0.25391781  0.98394638     0.19100
H1336       H  0.55908759  0.27308493  0.86276543     0.14900
C1337       C  0.81089259  0.21195904  0.68749828     0.30400
C1338       C  0.81539942  0.18831558  0.66862395    -0.36000
C1339       C  0.82387819  0.19543024  0.64011952     0.16400
C1340       C  0.82720129  0.22376371  0.63077281     0.22200
C1341       C  0.82326840  0.24733226  0.64971791    -0.34100
C1342       C  0.81522951  0.24024604  0.67826439     0.16300
O1343       O  0.80217436  0.21053016  0.71484520    -0.26100
C1344       C  0.80146741  0.23826484  0.72336205     0.06100
C1345       C  0.80941987  0.25765388  0.70143450    -0.31000
O1346       O  0.83375093  0.22551560  0.60295937    -0.22800
C1347       C  0.83498599  0.19791816  0.59409159    -0.02800
C1348       C  0.82952854  0.17822015  0.61666070    -0.17200
H1349       H  0.81220558  0.16601748  0.67555413     0.20800
H1350       H  0.82599269  0.26964249  0.64261290     0.19100
H1351       H  0.80996325  0.28121385  0.70218456     0.19100
H1352       H  0.82970822  0.15472582  0.61626762     0.14900
C1353       C  0.68506653  0.21966835  0.79841059     0.30400
C1354       C  0.65751950  0.21313757  0.78720705    -0.36000
C1355       C  0.63530080  0.20935684  0.80762230     0.16400
C1356       C  0.63974162  0.21140471  0.83718564     0.22200
C1357       C  0.66738071  0.21852455  0.84850651    -0.34100
C1358       C  0.68973116  0.22269364  0.82789940     0.16300
O1359       O  0.70851083  0.22491729  0.78287052    -0.26100
C1360       C  0.72867995  0.23179859  0.80239445     0.06100
C1361       C  0.71827046  0.23086275  0.83091562    -0.31000
O1362       O  0.61568341  0.20615363  0.85215338    -0.22800
C1363       C  0.59565972  0.20072976  0.83180308    -0.02800
C1364       C  0.60672279  0.20308328  0.80373592    -0.17200
H1365       H  0.65362479  0.21134835  0.76404092     0.20800
H1366       H  0.67112147  0.22081195  0.87160815     0.19100
H1367       H  0.72976831  0.23615740  0.85074397     0.19100
H1368       H  0.59532549  0.20028170  0.78329328     0.14900
C1369       C  0.81520342  0.35505208  0.80004494     0.30400
C1370       C  0.82335652  0.38259735  0.78990239    -0.36000
C1371       C  0.82795132  0.40378793  0.81115944     0.16400
C1372       C  0.82519884  0.39832849  0.84050414     0.22200
C1373       C  0.81657857  0.37072063  0.85074290    -0.34100
C1374       C  0.81155607  0.34945385  0.82931816     0.16300
O1375       O  0.80954062  0.33232094  0.78369255    -0.26100
C1376       C  0.80180248  0.31171518  0.80249416     0.06100
C1377       C  0.80250420  0.32113163  0.83132097    -0.31000
O1378       O  0.83084603  0.42159342  0.85639534    -0.22800
C1379       C  0.83713794  0.44223065  0.83691798    -0.02800
C1380       C  0.83517958  0.43226385  0.80841872    -0.17200
H1381       H  0.82573855  0.38725265  0.76690786     0.20800
H1382       H  0.81377281  0.36623809  0.87368810     0.19100
H1383       H  0.79715601  0.30896290  0.85076369     0.19100
H1384       H  0.83839673  0.44438716  0.78844525     0.14900
C1385       C  0.82221239  0.66047184  0.82011165     0.30400
C1386       C  0.84602505  0.64170712  0.82459500    -0.36000
C1387       C  0.83912980  0.61273001  0.83168059     0.16400
C1388       C  0.81085160  0.60288613  0.83390359     0.22200
C1389       C  0.78707705  0.62179918  0.83036459    -0.34100
C1390       C  0.79393538  0.65080467  0.82360724     0.16300
O1391       O  0.82344356  0.68773182  0.81094122    -0.26100
C1392       C  0.79558678  0.69580036  0.80918881     0.06100
C1393       C  0.77630518  0.67374398  0.81706714    -0.31000
O1394       O  0.80939017  0.57468476  0.83903802    -0.22800
C1395       C  0.83712762  0.56609926  0.84043200    -0.02800
C1396       C  0.85658506  0.58918955  0.83657494    -0.17200
H1397       H  0.86830487  0.64895190  0.82189236     0.20800
H1398       H  0.76481175  0.61427165  0.83203865     0.19100
H1399       H  0.75274356  0.67399681  0.81614876     0.19100
H1400       H  0.88001629  0.58928409  0.83787069     0.14900
C1401       C  0.91139616  0.45638261  0.77536229     0.30400
C1402       C  0.92370924  0.45238175  0.74770315    -0.36000
C1403       C  0.94134281  0.42761568  0.74426598     0.16400
C1404       C  0.94630057  0.40793918  0.76645392     0.22200
C1405       C  0.93409020  0.41204501  0.79417379    -0.34100
C1406       C  0.91678355  0.43704331  0.79768837     0.16300
O1407       O  0.89350299  0.47751652  0.78308499    -0.26100
C1408       C  0.88746490  0.47199373  0.81086964     0.06100
C1409       C  0.90170495  0.44712929  0.82113419    -0.31000
O1410       O  0.96386139  0.38654201  0.75856153    -0.22800
C1411       C  0.97039160  0.39267322  0.73099949    -0.02800
C1412       C  0.95696111  0.41796884  0.72096805    -0.17200
H1413       H  0.91980306  0.46758603  0.73004054     0.20800
H1414       H  0.93793776  0.39686174  0.81183558     0.19100
H1415       H  0.90010610  0.43724737  0.84247133     0.19100
H1416       H  0.95893274  0.42809149  0.69975048     0.14900
C1417       C  0.79777548  0.43994320  0.91714134     0.30400
C1418       C  0.79863246  0.41868479  0.93907004    -0.36000
C1419       C  0.77156428  0.40794181  0.94836527     0.16400
C1420       C  0.74539823  0.41774401  0.93716861     0.22200
C1421       C  0.74460470  0.43830935  0.91454345    -0.34100
C1422       C  0.77171244  0.44879724  0.90500282     0.16300
O1423       O  0.82045106  0.45330053  0.90560062    -0.26100
C1424       C  0.80880939  0.47090196  0.88571875     0.06100
C1425       C  0.77860637  0.46852923  0.88394618    -0.31000
O1426       O  0.72266650  0.40629592  0.95059477    -0.22800
C1427       C  0.73448005  0.38852555  0.97022340    -0.02800
C1428       C  0.76479191  0.38842091  0.96962672    -0.17200
H1429       H  0.81897896  0.41133679  0.94852294     0.20800
H1430       H  0.72423725  0.44597917  0.90535297     0.19100
H1431       H  0.76394850  0.47965936  0.86917052     0.19100
H1432       H  0.77961110  0.37668961  0.98374200     0.14900
C1433       C  0.77495671  0.54817457  0.91475479     0.30400
C1434       C  0.74736817  0.55032511  0.92776529    -0.36000
C1435       C  0.74291828  0.57446105  0.94588777     0.16400
C1436       C  0.76415767  0.59513299  0.95092119     0.22200
C1437       C  0.79197388  0.59273832  0.93818643    -0.34100
C1438       C  0.79642428  0.56847771  0.92007144     0.16300
O1439       O  0.78321516  0.52807412  0.89606022    -0.26100
C1440       C  0.81049072  0.53519169  0.88924537     0.06100
C1441       C  0.81994664  0.56011891  0.90389866    -0.31000
O1442       O  0.75512217  0.61596984  0.96857937    -0.22800
C1443       C  0.72777187  0.60845291  0.97497589    -0.02800
C1444       C  0.71907473  0.58279064  0.96148041    -0.17200
H1445       H  0.73041426  0.53442665  0.92375052     0.20800
H1446       H  0.80885516  0.60876894  0.94193940     0.19100
H1447       H  0.84082442  0.57098007  0.90217677     0.19100
H1448       H  0.69830397  0.57171539  0.96320859     0.14900
C1449       C  0.94042122  0.57897644  0.74096888     0.30400
C1450       C  0.91520314  0.56160650  0.74182666    -0.36000
C1451       C  0.90543858  0.55341541  0.76962407     0.16400
C1452       C  0.92006621  0.56093084  0.79473719     0.22200
C1453       C  0.94480344  0.57882291  0.79393748    -0.34100
C1454       C  0.95404125  0.58770001  0.76627097     0.16300
O1455       O  0.95341751  0.58927465  0.71743915    -0.26100
C1456       C  0.97517228  0.60527268  0.72799337     0.06100
C1457       C  0.97650657  0.60520010  0.75816438    -0.31000
O1458       O  0.90791674  0.54989490  0.81827944    -0.22800
C1459       C  0.88468827  0.53579424  0.80828069    -0.02800
C1460       C  0.88187664  0.53745225  0.77817367    -0.17200
H1461       H  0.90389190  0.55507477  0.72221749     0.20800
H1462       H  0.95601656  0.58545922  0.81355685     0.19100
H1463       H  0.99206565  0.61618038  0.77204116     0.19100
H1464       H  0.86523095  0.52772414  0.76461352     0.14900
loop_ 
_geom_bond_atom_site_label_1 
_geom_bond_atom_site_label_2 
_geom_bond_distance 
_geom_bond_site_symmetry_2 
_ccdc_geom_bond_type 
C1            C2   1.425       .  A
C1            C6   1.424       .  A
C1         C1395   1.497       .  S
C2            C3   1.420       .  A
C2         C1459   1.483       .  S
C3            C4   1.419       .  A
C3         C1408   1.499       .  S
C4            C5   1.416       .  A
C4         C1379   1.497       .  S
C5            C6   1.422       .  A
C5         C1424   1.483       .  S
C6         C1440   1.501       .  S
C7            C8   1.405       .  A
C7           C12   1.404       .  A
C7         C1376   1.477       .  S
C8            C9   1.406       .  A
C8           H13   1.085       .  S
C9           C10   1.407       .  A
C9         C1360   1.476       .  S
C10          C11   1.400       .  A
C10          H14   1.084       .  S
C11          C12   1.402       .  A
C11        C1344   1.480       .  S
C12          H15   1.083       .  S
C16          C17   1.417       .  A
C16          C21   1.424       .  A
C16        C1363   1.496       .  S
C17          C18   1.419       .  A
C17        C1331   1.483       .  S
C18          C19   1.420       .  A
C18        C1296   1.491       .  S
C19          C20   1.424       .  A
C19        C1264   1.494       .  S
C20          C21   1.422       .  A
C20        C1283   1.500       .  S
C21        C1315   1.496       .  S
C22          C23   1.417       .  A
C22          C27   1.414       .  A
C22        C1171   1.483       .  S
C23          C24   1.416       .  A
C23        C1216   1.487       .  S
C24          C25   1.420       .  A
C24        C1248   1.492       .  S
C25          C26   1.421       .  A
C25        C1184   1.490       .  S
C26          C27   1.414       .  A
C26        C1235   1.493       .  S
C27        C1203   1.483       .  S
C28          C29   1.404       .  A
C28          C33   1.402       .  A
C28        C1152   1.472       .  S
C29          C30   1.404       .  A
C29          H34   1.084       .  S
C30          C31   1.403       .  A
C30        C1267   1.474       .  S
C31          C32   1.402       .  A
C31          H35   1.084       .  S
C32          C33   1.399       .  A
C32        C1168   1.467       .  S
C33          H36   1.086       .  S
C37          C38   1.419       .  A
C37          C42   1.422       .  A
C37        C1056   1.491       .  S
C38          C39   1.418       .  A
C38        C1088   1.492       .  S
C39          C40   1.420       .  A
C39        C1136   1.481       .  S
C40          C41   1.421       .  A
C40        C1072   1.493       .  S
C41          C42   1.418       .  A
C41        C1120   1.492       .  S
C42        C1107   1.499       .  S
C43          C44   1.402       .  A
C43          C48   1.404       .  A
C43        C1059   1.471       .  S
C44          C45   1.403       .  A
C44          H49   1.084       .  S
C45          C46   1.402       .  A
C45        C1187   1.472       .  S
C46          C47   1.400       .  A
C46          H50   1.083       .  S
C47          C48   1.399       .  A
C47        C1040   1.470       .  S
C48          H51   1.085       .  S
C52          C53   1.420       .  A
C52          C57   1.420       .  A
C52         C963   1.490       .  S
C53          C54   1.416       .  A
C53        C1024   1.482       .  S
C54          C55   1.423       .  A
C54         C992   1.499       .  S
C55          C56   1.423       .  A
C55         C944   1.493       .  S
C56          C57   1.419       .  A
C56         C979   1.491       .  S
C57        C1008   1.496       .  S
C58          C59   1.418       .  A
C58          C63   1.414       .  A
C58        C1043   1.485       .  S
C59          C60   1.418       .  A
C59         C912   1.493       .  S
C60          C61   1.416       .  A
C60         C883   1.486       .  S
C61          C62   1.423       .  A
C61         C864   1.493       .  S
C62          C63   1.417       .  A
C62         C899   1.487       .  S
C63         C928   1.490       .  S
C64          C65   1.399       .  A
C64          C69   1.399       .  A
C64         C947   1.471       .  S
C65          C66   1.402       .  A
C65          H70   1.083       .  S
C66          C67   1.405       .  A
C66         C867   1.474       .  S
C67          C68   1.406       .  A
C67          H71   1.085       .  S
C68          C69   1.402       .  A
C68         C848   1.468       .  S
C69          H72   1.086       .  S
C73          C74   1.418       .  A
C73          C78   1.419       .  A
C73         C851   1.494       .  S
C74          C75   1.419       .  A
C74         C819   1.485       .  S
C75          C76   1.421       .  A
C75         C803   1.503       .  S
C76          C77   1.425       .  A
C76         C771   1.494       .  S
C77          C78   1.417       .  A
C77         C787   1.481       .  S
C78         C832   1.492       .  S
C79          C80   1.413       .  A
C79          C84   1.422       .  A
C79         C675   1.491       .  S
C80          C81   1.417       .  A
C80         C704   1.486       .  S
C81          C82   1.425       .  A
C81         C752   1.488       .  S
C82          C83   1.425       .  A
C82         C691   1.503       .  S
C83          C84   1.418       .  A
C83         C736   1.487       .  S
C84         C720   1.497       .  S
C85          C86   1.402       .  A
C85          C90   1.403       .  A
C85         C656   1.479       .  S
C86          C87   1.403       .  A
C86          H91   1.085       .  S
C87          C88   1.402       .  A
C87         C768   1.471       .  S
C88          C89   1.403       .  A
C88          H92   1.086       .  S
C89          C90   1.404       .  A
C89         C672   1.471       .  S
C90          H93   1.084       .  S
C94          C95   1.421       .  A
C94          C99   1.421       .  A
C94        C1155   1.492       .  S
C95          C96   1.419       .  A
C95         C592   1.493       .  S
C96          C97   1.420       .  A
C96         C643   1.495       .  S
C97          C98   1.419       .  A
C97         C659   1.497       .  S
C98          C99   1.422       .  A
C98         C627   1.484       .  S
C99         C608   1.494       .  S
C100        C101   1.421       .  A
C100        C105   1.419       .  A
C100        C496   1.503       .  S
C101        C102   1.421       .  A
C101        C544   1.490       .  S
C102        C103   1.421       .  A
C102        C576   1.487       .  S
C103        C104   1.426       .  A
C103        C512   1.504       .  S
C104        C105   1.418       .  A
C104        C560   1.490       .  S
C105        C528   1.487       .  S
C106        C107   1.421       .  A
C106        C111   1.418       .  A
C106       C1347   1.499       .  S
C107        C108   1.422       .  A
C107        C480   1.495       .  S
C108        C109   1.423       .  A
C108        C451   1.480       .  S
C109        C110   1.421       .  A
C109        C416   1.505       .  S
C110        C111   1.418       .  A
C110        C435   1.488       .  S
C111        C464   1.482       .  S
C112        C113   1.408       .  A
C112        C117   1.404       .  A
C112        C499   1.482       .  S
C113        C114   1.408       .  A
C113        H118   1.084       .  S
C114        C115   1.408       .  A
C114        C419   1.483       .  S
C115        C116   1.404       .  A
C115        H119   1.084       .  S
C116        C117   1.401       .  A
C116        C688   1.479       .  S
C117        H120   1.085       .  S
C121        C122   1.420       .  A
C121        C126   1.421       .  A
C121        C320   1.501       .  S
C122        C123   1.421       .  A
C122        C355   1.493       .  S
C123        C124   1.425       .  A
C123        C403   1.486       .  S
C124        C125   1.426       .  A
C124        C339   1.509       .  S
C125        C126   1.420       .  A
C125        C384   1.491       .  S
C126        C368   1.488       .  S
C127        C128   1.406       .  A
C127        C132   1.412       .  A
C127        C323   1.480       .  S
C128        C129   1.399       .  A
C128        H133   1.085       .  S
C129        C130   1.398       .  A
C129        C960   1.473       .  S
C130        C131   1.402       .  A
C130        H134   1.084       .  S
C131        C132   1.408       .  A
C131        C515   1.480       .  S
C132        H135   1.084       .  S
C136        C137   1.405       .  A
C136        C141   1.405       .  A
C136        C336   1.482       .  S
C137        C138   1.405       .  A
C137        H142   1.084       .  S
C138        C139   1.402       .  A
C138       C1075   1.477       .  S
C139        C140   1.405       .  A
C139        H143   1.085       .  S
C140        C141   1.405       .  A
C140       C1392   1.478       .  S
C141        H144   1.084       .  S
O145        V153   1.900       .  S
O145        C155   1.263       .  A
O146        V153   1.902       .  S
O146        C156   1.265   1_455  A
O147        V153   1.893       .  S
O147        C157   1.262   1_455  A
O148        V153   1.895       .  S
O148        C158   1.262       .  A
O149        V154   1.907       .  S
O149        C158   1.266       .  A
O150        V154   1.908       .  S
O150        C157   1.265   1_455  A
O151        V154   1.902       .  S
O151        C156   1.264   1_455  A
O152        V154   1.902       .  S
O152        C155   1.265       .  A
V153        V154   2.089       .  T
C155       C1232   1.469       .  S
C156        C387   1.470       .  S
C157       C1456   1.467       .  S
C158        C915   1.468       .  S
O159        V167   1.906   1_545  S
O159        C169   1.265       .  A
O160        V167   1.907       .  S
O160        C170   1.266       .  A
O161        V167   1.900       .  S
O161        C171   1.264       .  A
O162        V167   1.905   1_545  S
O162        C172   1.264       .  A
O163        V168   1.901   1_545  S
O163        C172   1.264       .  A
O164        V168   1.904       .  S
O164        C171   1.264       .  A
O165        V168   1.901       .  S
O165        C170   1.263       .  A
O166        V168   1.901   1_545  S
O166        C169   1.264       .  A
V167        V168   2.088       .  T
C169       C1312   1.472       .  S
C170        C400   1.471       .  S
C171       C1123   1.470       .  S
C172        C467   1.467       .  S
O173        V181   1.904       .  S
O173        C183   1.264   1_554  A
O174        V181   1.903       .  S
O174        C184   1.264       .  A
O175        V181   1.910       .  S
O175        C185   1.266       .  A
O176        V181   1.906       .  S
O176        C186   1.266   1_554  A
O177        V182   1.904       .  S
O177        C186   1.264   1_554  A
O178        V182   1.899       .  S
O178        C185   1.264       .  A
O179        V182   1.902       .  S
O179        C184   1.264       .  A
O180        V182   1.901       .  S
O180        C183   1.264   1_554  A
V181        V182   2.087       .  T
C183       C1139   1.467       .  S
C184        C563   1.470       .  S
C185       C1011   1.474       .  S
C186       C1443   1.475       .  S
O187        V195   1.909       .  S
O187        C197   1.265       .  A
O188        V195   1.909   1_565  S
O188        C198   1.266       .  A
O189        V195   1.906   1_565  S
O189        C199   1.265       .  A
O190        V195   1.904       .  S
O190        C200   1.265       .  A
O191        V196   1.912       .  S
O191        C200   1.266       .  A
O192        V196   1.909   1_565  S
O192        C199   1.266       .  A
O193        V196   1.910   1_565  S
O193        C198   1.265       .  A
O194        V196   1.905       .  S
O194        C197   1.265       .  A
V195        V196   2.087       .  T
C197       C1280   1.477       .  S
C198        C931   1.478       .  S
C199       C1104   1.478       .  S
C200        C611   1.478       .  S
O201        V209   1.910       .  S
O201        C211   1.265       .  A
O202        V209   1.911       .  S
O202        C212   1.266   1_455  A
O203        V209   1.904       .  S
O203        C213   1.265   1_455  A
O204        V209   1.902       .  S
O204        C214   1.264       .  A
O205        V210   1.908       .  S
O205        C214   1.266       .  A
O206        V210   1.906       .  S
O206        C213   1.265   1_455  A
O207        V210   1.894       .  S
O207        C212   1.263   1_455  A
O208        V210   1.895       .  S
O208        C211   1.263       .  A
V209        V210   2.088       .  T
C211       C1200   1.469       .  S
C212        C483   1.473       .  S
C213       C1411   1.475       .  S
C214        C595   1.473       .  S
O215        V223   1.902       .  S
O215        C225   1.265   1_554  A
O216        V223   1.900       .  S
O216        C226   1.264       .  A
O217        V223   1.908       .  S
O217        C227   1.265       .  A
O218        V223   1.907       .  S
O218        C228   1.265   1_554  A
O219        V224   1.904       .  S
O219        C228   1.265   1_554  A
O220        V224   1.905       .  S
O220        C227   1.265       .  A
O221        V224   1.901       .  S
O221        C226   1.264       .  A
O222        V224   1.906       .  S
O222        C225   1.265   1_554  A
V223        V224   2.088       .  T
C225       C1091   1.473       .  S
C226        C816   1.466       .  S
C227        C976   1.474       .  S
C228       C1251   1.475       .  S
O229        V237   1.905       .  S
O229        C239   1.265   1_554  A
O230        V237   1.905       .  S
O230        C240   1.265       .  A
O231        V237   1.902       .  S
O231        C241   1.264       .  A
O232        V237   1.899   1_556  S
O232        C242   1.263       .  A
O233        V238   1.906       .  S
O233        C242   1.266   1_554  A
O234        V238   1.906       .  S
O234        C241   1.265       .  A
O235        V238   1.897       .  S
O235        C240   1.263       .  A
O236        V238   1.898       .  S
O236        C239   1.263   1_554  A
V237        V238   2.088       .  T
C239       C1427   1.468       .  S
C240        C755   1.469       .  S
C241        C531   1.471       .  S
C242       C1328   1.468       .  S
O243        V251   1.906   1_545  S
O243        C253   1.265       .  A
O244        V251   1.910       .  S
O244        C254   1.266       .  A
O245        V251   1.900       .  S
O245        C255   1.264       .  A
O246        V251   1.900   1_545  S
O246        C256   1.264       .  A
O247        V252   1.899   1_545  S
O247        C256   1.263       .  A
O248        V252   1.901       .  S
O248        C255   1.263       .  A
O249        V252   1.904       .  S
O249        C254   1.264       .  A
O250        V252   1.908   1_545  S
O250        C253   1.265       .  A
V251        V252   2.088       .  T
C253        C739   1.475       .  S
C254        C352   1.476       .  S
C255       C1027   1.466       .  S
C256        C432   1.466       .  S
O257        V265   1.901       .  S
O257        C267   1.264       .  A
O258        V265   1.903       .  S
O258        C268   1.264   1_455  A
O259        V265   1.908       .  S
O259        C269   1.265   1_455  A
O260        V265   1.910       .  S
O260        C270   1.266       .  A
O261        V266   1.899       .  S
O261        C270   1.263       .  A
O262        V266   1.899       .  S
O262        C269   1.263   1_455  A
O263        V266   1.909       .  S
O263        C268   1.266   1_455  A
O264        V266   1.909       .  S
O264        C267   1.266       .  A
V265        V266   2.088       .  T
C267        C835   1.474       .  S
C268        C371   1.474       .  S
C269        C579   1.471       .  S
C270        C880   1.471       .  S
O271        V279   1.903       .  S
O271        C281   1.264       .  A
O272        V279   1.904       .  S
O272        C282   1.264   1_455  A
O273        V279   1.907       .  S
O273        C283   1.265   1_455  A
O274        V279   1.909       .  S
O274        C284   1.265       .  A
O275        V280   1.897       .  S
O275        C284   1.264       .  A
O276        V280   1.901       .  S
O276        C283   1.264   1_455  A
O277        V280   1.904       .  S
O277        C282   1.264   1_455  A
O278        V280   1.904       .  S
O278        C281   1.264       .  A
V279        V280   2.088       .  T
C281        C784   1.469       .  S
C282        C448   1.468       .  S
C283        C547   1.472       .  S
C284        C640   1.472       .  S
O285        V293   1.901       .  S
O285        C295   1.264       .  A
O286        V293   1.902   1_565  S
O286        C296   1.265       .  A
O287        V293   1.903   1_565  S
O287        C297   1.265       .  A
O288        V293   1.904       .  S
O288        C298   1.264       .  A
O289        V294   1.905       .  S
O289        C298   1.265       .  A
O290        V294   1.904   1_565  S
O290        C297   1.265       .  A
O291        V294   1.900   1_565  S
O291        C296   1.263       .  A
O292        V294   1.902       .  S
O292        C295   1.264       .  A
V293        V294   2.088       .  T
C295        C723   1.470       .  S
C296        C896   1.468       .  S
C297        C995   1.474       .  S
C298        C624   1.471       .  S
O299        V307   1.898       .  S
O299        C309   1.262       .  A
O300        V307   1.898       .  S
O300        C310   1.263   1_554  A
O301        V307   1.903       .  S
O301        C311   1.264   1_554  A
O302        V307   1.904       .  S
O302        C312   1.265       .  A
O303        V308   1.908       .  S
O303        C312   1.266       .  A
O304        V308   1.909       .  S
O304        C311   1.266   1_554  A
O305        V308   1.906       .  S
O305        C310   1.265   1_554  A
O306        V308   1.907       .  S
O306        C309   1.266       .  A
V307        V308   2.088       .  T
C309        C707   1.468       .  S
C310       C1219   1.469       .  S
C311       C1299   1.474       .  S
C312        C800   1.476       .  S
C313        C318   1.377       .  A
C313        C314   1.405       .  A
C313        O319   1.319       .  A
C314        C315   1.405       .  A
C314        H325   1.084       .  S
C315        C324   1.366       .  A
C315        C316   1.380       .  A
C316        C317   1.403       .  A
C316        O322   1.317       .  A
C317        C318   1.402       .  A
C317        H326   1.084       .  S
C318        C321   1.359       .  A
O319        C320   1.332       .  A
C320        C321   1.396       .  A
C321        H327   1.082       .  S
O322        C323   1.332       .  A
C323        C324   1.393       .  A
C324        H328   1.083       .  S
C329        C334   1.380       .  A
C329        C330   1.404       .  A
C329        O335   1.320       .  A
C330        C331   1.403       .  A
C330        H341   1.086       .  S
C331        C340   1.361       .  A
C331        C332   1.376       .  A
C332        C333   1.404       .  A
C332        O338   1.319       .  A
C333        C334   1.404       .  A
C333        H342   1.084       .  S
C334        C337   1.363       .  A
O335        C336   1.332       .  A
C336        C337   1.395       .  A
C337        H343   1.082       .  S
O338        C339   1.333       .  A
C339        C340   1.399       .  A
C340        H344   1.084       .  S
C345        C350   1.380       .  A
C345        C346   1.406       .  A
C345        O351   1.321       .  A
C346        C347   1.404       .  A
C346        H357   1.082       .  S
C347        C356   1.364       .  A
C347        C348   1.379       .  A
C348        C349   1.406       .  A
C348        O354   1.320       .  A
C349        C350   1.405       .  A
C349        H358   1.082       .  S
C350        C353   1.366       .  A
O351        C352   1.332       .  A
C352        C353   1.393       .  A
C353        H359   1.083       .  S
O354        C355   1.333       .  A
C355        C356   1.394       .  A
C356        H360   1.081       .  S
C361        C366   1.380       .  A
C361        C362   1.405       .  A
C361        O367   1.322       .  A
C362        C363   1.406       .  A
C362        H373   1.085       .  S
C363        C372   1.365       .  A
C363        C364   1.381       .  A
C364        C365   1.404       .  A
C364        O370   1.321       .  A
C365        C366   1.404       .  A
C365        H374   1.084       .  S
C366        C369   1.362       .  A
O367        C368   1.332       .  A
C368        C369   1.392       .  A
C369        H375   1.083       .  S
O370        C371   1.331       .  A
C371        C372   1.392       .  A
C372        H376   1.084       .  S
C377        C382   1.380       .  A
C377        C378   1.406       .  A
C377        O383   1.321       .  A
C378        C379   1.405       .  A
C378        H389   1.085       .  S
C379        C388   1.365       .  A
C379        C380   1.381       .  A
C380        C381   1.401       .  A
C380        O386   1.318       .  A
C381        C382   1.400       .  A
C381        H390   1.085       .  S
C382        C385   1.359       .  A
O383        C384   1.333       .  A
C384        C385   1.392       .  A
C385        H391   1.083       .  S
O386        C387   1.329       .  A
C387        C388   1.393       .  A
C388        H392   1.084       .  S
C393        C398   1.380       .  A
C393        C394   1.406       .  A
C393        O399   1.321       .  A
C394        C395   1.405       .  A
C394        H405   1.084       .  S
C395        C404   1.364       .  A
C395        C396   1.380       .  A
C396        C397   1.402       .  A
C396        O402   1.318       .  A
C397        C398   1.402       .  A
C397        H406   1.084       .  S
C398        C401   1.362       .  A
O399        C400   1.332       .  A
C400        C401   1.390       .  A
C401        H407   1.083       .  S
O402        C403   1.329       .  A
C403        C404   1.394       .  A
C404        H408   1.083       .  S
C409        C414   1.377       .  A
C409        C410   1.401       .  A
C409        O415   1.316       .  A
C410        C411   1.401       .  A
C410        H421   1.082       .  S
C411        C420   1.358       .  A
C411        C412   1.380       .  A
C412        C413   1.408       .  A
C412        O418   1.324       .  A
C413        C414   1.408       .  A
C413        H422   1.082       .  S
C414        C417   1.365       .  A
O415        C416   1.333       .  A
C416        C417   1.399       .  A
C417        H423   1.080       .  S
O418        C419   1.334       .  A
C419        C420   1.392       .  A
C420        H424   1.082       .  S
C425        C430   1.381       .  A
C425        C426   1.403       .  A
C425        O431   1.318       .  A
C426        C427   1.402       .  A
C426        H437   1.084       .  S
C427        C436   1.359       .  A
C427        C428   1.380       .  A
C428        C429   1.402       .  A
C428        O434   1.317       .  A
C429        C430   1.401       .  A
C429        H438   1.084       .  S
C430        C433   1.360       .  A
O431        C432   1.330       .  A
C432        C433   1.390       .  A
C433        H439   1.083       .  S
O434        C435   1.331       .  A
C435        C436   1.393       .  A
C436        H440   1.081       .  S
C441        C446   1.381       .  A
C441        C442   1.405       .  A
C441        O447   1.322       .  A
C442        C443   1.404       .  A
C442        H453   1.084       .  S
C443        C452   1.364       .  A
C443        C444   1.381       .  A
C444        C445   1.403       .  A
C444        O450   1.319       .  A
C445        C446   1.402       .  A
C445        H454   1.084       .  S
C446        C449   1.362       .  A
O447        C448   1.331       .  A
C448        C449   1.389       .  A
C449        H455   1.083   1_655  S
O450        C451   1.330       .  A
C451        C452   1.392       .  A
C452        H456   1.083       .  S
C457        C462   1.381       .  A
C457        C458   1.406       .  A
C457        O463   1.321       .  A
C458        C459   1.405       .  A
C458        H469   1.083       .  S
C459        C468   1.365       .  A
C459        C460   1.381       .  A
C460        C461   1.403       .  A
C460        O466   1.319       .  A
C461        C462   1.402       .  A
C461        H470   1.082       .  S
C462        C465   1.362       .  A
O463        C464   1.332       .  A
C464        C465   1.390       .  A
C465        H471   1.082       .  S
O466        C467   1.330       .  A
C467        C468   1.391       .  A
C468        H472   1.083       .  S
C473        C478   1.379       .  A
C473        C474   1.403       .  A
C473        O479   1.318       .  A
C474        C475   1.403       .  A
C474        H485   1.081       .  S
C475        C484   1.360       .  A
C475        C476   1.380       .  A
C476        C477   1.406       .  A
C476        O482   1.322       .  A
C477        C478   1.405       .  A
C477        H486   1.081       .  S
C478        C481   1.363       .  A
O479        C480   1.332       .  A
C480        C481   1.395       .  A
C481        H487   1.080       .  S
O482        C483   1.332       .  A
C483        C484   1.391       .  A
C484        H488   1.082       .  S
C489        C494   1.377       .  A
C489        C490   1.405       .  A
C489        O495   1.320       .  A
C490        C491   1.405       .  A
C490        H501   1.081       .  S
C491        C500   1.362       .  A
C491        C492   1.380       .  A
C492        C493   1.403       .  A
C492        O498   1.320       .  A
C493        C494   1.403       .  A
C493        H502   1.083       .  S
C494        C497   1.358       .  A
O495        C496   1.332       .  A
C496        C497   1.396       .  A
C497        H503   1.083       .  S
O498        C499   1.331       .  A
C499        C500   1.395       .  A
C500        H504   1.081       .  S
C505        C510   1.377       .  A
C505        C506   1.410       .  A
C505        O511   1.322       .  A
C506        C507   1.409       .  A
C506        H517   1.080       .  S
C507        C516   1.371       .  A
C507        C508   1.380       .  A
C508        C509   1.399       .  A
C508        O514   1.313       .  A
C509        C510   1.397       .  A
C509        H518   1.082       .  S
C510        C513   1.356       .  A
O511        C512   1.336       .  A
C512        C513   1.394       .  A
C513        H519   1.082       .  S
O514        C515   1.329       .  A
C515        C516   1.396       .  A
C516        H520   1.081       .  S
C521        C526   1.380       .  A
C521        C522   1.405       .  A
C521        O527   1.321       .  A
C522        C523   1.405       .  A
C522        H533   1.085       .  S
C523        C532   1.364       .  A
C523        C524   1.381       .  A
C524        C525   1.403       .  A
C524        O530   1.320       .  A
C525        C526   1.402       .  A
C525        H534   1.084       .  S
C526        C529   1.360       .  A
O527        C528   1.332       .  A
C528        C529   1.391       .  A
C529        H535   1.083       .  S
O530        C531   1.330       .  A
C531        C532   1.392       .  A
C532        H536   1.084       .  S
C537        C542   1.379       .  A
C537        C538   1.403       .  A
C537        O543   1.318       .  A
C538        C539   1.403       .  A
C538        H549   1.085       .  S
C539        C548   1.362       .  A
C539        C540   1.381       .  A
C540        C541   1.405       .  A
C540        O546   1.321       .  A
C541        C542   1.404       .  A
C541        H550   1.084       .  S
C542        C545   1.363       .  A
O543        C544   1.330       .  A
C544        C545   1.393       .  A
C545        H551   1.083       .  S
O546        C547   1.331       .  A
C547        C548   1.391       .  A
C548        H552   1.084       .  S
C553        C558   1.380       .  A
C553        C554   1.405       .  A
C553        O559   1.319       .  A
C554        C555   1.404       .  A
C554        H565   1.082       .  S
C555        C564   1.364       .  A
C555        C556   1.381       .  A
C556        C557   1.403       .  A
C556        O562   1.318       .  A
C557        C558   1.402       .  A
C557        H566   1.082       .  S
C558        C561   1.361       .  A
O559        C560   1.332       .  A
C560        C561   1.392       .  A
C561        H567   1.082       .  S
O562        C563   1.330       .  A
C563        C564   1.392       .  A
C564        H568   1.083       .  S
C569        C574   1.379       .  A
C569        C570   1.405       .  A
C569        O575   1.320       .  A
C570        C571   1.405       .  A
C570        H581   1.082       .  S
C571        C580   1.363       .  A
C571        C572   1.381       .  A
C572        C573   1.404       .  A
C572        O578   1.321       .  A
C573        C574   1.403       .  A
C573        H582   1.083       .  S
C574        C577   1.361       .  A
O575        C576   1.332       .  A
C576        C577   1.391       .  A
C577        H583   1.082       .  S
O578        C579   1.331       .  A
C579        C580   1.392       .  A
C580        H584   1.082       .  S
C585        C590   1.379       .  A
C585        C586   1.406       .  A
C585        O591   1.321       .  A
C586        C587   1.405       .  A
C586        H597   1.084       .  S
C587        C596   1.365       .  A
C587        C588   1.380       .  A
C588        C589   1.404       .  A
C588        O594   1.320       .  A
C589        C590   1.403       .  A
C589        H598   1.085       .  S
C590        C593   1.361       .  A
O591        C592   1.333       .  A
C592        C593   1.393       .  A
C593        H599   1.083       .  S
O594        C595   1.331       .  A
C595        C596   1.392       .  A
C596        H600   1.083       .  S
C601        C606   1.379       .  A
C601        C602   1.404       .  A
C601        O607   1.320       .  A
C602        C603   1.404       .  A
C602        H613   1.082       .  S
C603        C612   1.363       .  A
C603        C604   1.380       .  A
C604        C605   1.408       .  A
C604        O610   1.324       .  A
C605        C606   1.408       .  A
C605        H614   1.082       .  S
C606        C609   1.366       .  A
O607        C608   1.332       .  A
C608        C609   1.395       .  A
C609        H615   1.080       .  S
O610        C611   1.334       .  A
C611        C612   1.391       .  A
C612        H616   1.082       .  S
C617        C622   1.380       .  A
C617        C618   1.405       .  A
C617        O623   1.321       .  A
C618        C619   1.404       .  A
C618        H629   1.082       .  S
C619        C628   1.364       .  A
C619        C620   1.380       .  A
C620        C621   1.404       .  A
C620        O626   1.318       .  A
C621        C622   1.403       .  A
C621        H630   1.082       .  S
C622        C625   1.363       .  A
O623        C624   1.332       .  A
C624        C625   1.391       .  A
C625        H631   1.082       .  S
O626        C627   1.331       .  A
C627        C628   1.392       .  A
C628        H632   1.081       .  S
C633        C638   1.380       .  A
C633        C634   1.407       .  A
C633        O639   1.323       .  A
C634        C635   1.406       .  A
C634        H645   1.082       .  S
C635        C644   1.364       .  A
C635        C636   1.379       .  A
C636        C637   1.401       .  A
C636        O642   1.316       .  A
C637        C638   1.400       .  A
C637        H646   1.082       .  S
C638        C641   1.358       .  A
O639        C640   1.333       .  A
C640        C641   1.390       .  A
C641        H647   1.082       .  S
O642        C643   1.328       .  A
C643        C644   1.397       .  A
C644        H648   1.082       .  S
C649        C654   1.380       .  A
C649        C650   1.401       .  A
C649        O655   1.317       .  A
C650        C651   1.401       .  A
C650        H661   1.085       .  S
C651        C660   1.357       .  A
C651        C652   1.379       .  A
C652        C653   1.405       .  A
C652        O658   1.321       .  A
C653        C654   1.405       .  A
C653        H662   1.083       .  S
C654        C657   1.364       .  A
O655        C656   1.331       .  A
C656        C657   1.394       .  A
C657        H663   1.082       .  S
O658        C659   1.333       .  A
C659        C660   1.394       .  A
C660        H664   1.084       .  S
C665        C670   1.381       .  A
C665        C666   1.396       .  A
C665        O671   1.312       .  A
C666        C667   1.395       .  A
C666        H677   1.084       .  S
C667        C676   1.352       .  A
C667        C668   1.379       .  A
C668        C669   1.406       .  A
C668        O674   1.320       .  A
C669        C670   1.406       .  A
C669        H678   1.083       .  S
C670        C673   1.365       .  A
O671        C672   1.327       .  A
C672        C673   1.395       .  A
C673        H679   1.082       .  S
O674        C675   1.333       .  A
C675        C676   1.390       .  A
C676        H680   1.084       .  S
C681        C686   1.380       .  A
C681        C682   1.401       .  A
C681        O687   1.315       .  A
C682        C683   1.400       .  A
C682        H693   1.082       .  S
C683        C692   1.358       .  A
C683        C684   1.377       .  A
C684        C685   1.406       .  A
C684        O690   1.319       .  A
C685        C686   1.406       .  A
C685        H694   1.083       .  S
C686        C689   1.366       .  A
O687        C688   1.330       .  A
C688        C689   1.395       .  A
C689        H695   1.083       .  S
O690        C691   1.333       .  A
C691        C692   1.396       .  A
C692        H696   1.081       .  S
C697        C702   1.380       .  A
C697        C698   1.404       .  A
C697        O703   1.320       .  A
C698        C699   1.403       .  A
C698        H709   1.084       .  S
C699        C708   1.364       .  A
C699        C700   1.381       .  A
C700        C701   1.405       .  A
C700        O706   1.320       .  A
C701        C702   1.404       .  A
C701        H710   1.084       .  S
C702        C705   1.363       .  A
O703        C704   1.331       .  A
C704        C705   1.391       .  A
C705        H711   1.083       .  S
O706        C707   1.331       .  A
C707        C708   1.390       .  A
C708        H712   1.083       .  S
C713        C718   1.379       .  A
C713        C714   1.404       .  A
C713        O719   1.319       .  A
C714        C715   1.403       .  A
C714        H725   1.084       .  S
C715        C724   1.362       .  A
C715        C716   1.380       .  A
C716        C717   1.404       .  A
C716        O722   1.320       .  A
C717        C718   1.403       .  A
C717        H726   1.083       .  S
C718        C721   1.360       .  A
O719        C720   1.331       .  A
C720        C721   1.396       .  A
C721        H727   1.083       .  S
O722        C723   1.331       .  A
C723        C724   1.391       .  A
C724        H728   1.083       .  S
C729        C734   1.380       .  A
C729        C730   1.408       .  A
C729        O735   1.322       .  A
C730        C731   1.407       .  A
C730        H741   1.084       .  S
C731        C740   1.367       .  A
C731        C732   1.380       .  A
C732        C733   1.403       .  A
C732        O738   1.320       .  A
C733        C734   1.402       .  A
C733        H742   1.083       .  S
C734        C737   1.361       .  A
O735        C736   1.333       .  A
C736        C737   1.390       .  A
C737        H743   1.082       .  S
O738        C739   1.331       .  A
C739        C740   1.394       .  A
C740        H744   1.083       .  S
C745        C750   1.379       .  A
C745        C746   1.402       .  A
C745        O751   1.318       .  A
C746        C747   1.402       .  A
C746        H757   1.083       .  S
C747        C756   1.360       .  A
C747        C748   1.381       .  A
C748        C749   1.404       .  A
C748        O754   1.320       .  A
C749        C750   1.403       .  A
C749        H758   1.082       .  S
C750        C753   1.361       .  A
O751        C752   1.331       .  A
C752        C753   1.394       .  A
C753        H759   1.080       .  S
O754        C755   1.331       .  A
C755        C756   1.391       .  A
C756        H760   1.083       .  S
C761        C766   1.381       .  A
C761        C762   1.402       .  A
C761        O767   1.317       .  A
C762        C763   1.401       .  A
C762        H773   1.082       .  S
C763        C772   1.359       .  A
C763        C764   1.377       .  A
C764        C765   1.402       .  A
C764        O770   1.315       .  A
C765        C766   1.402       .  A
C765        H774   1.081       .  S
C766        C769   1.360       .  A
O767        C768   1.330       .  A
C768        C769   1.392       .  A
C769        H775   1.082       .  S
O770        C771   1.333       .  A
C771        C772   1.394       .  A
C772        H776   1.079       .  S
C777        C782   1.381       .  A
C777        C778   1.406       .  A
C777        O783   1.321       .  A
C778        C779   1.405       .  A
C778        H789   1.083       .  S
C779        C788   1.365       .  A
C779        C780   1.381       .  A
C780        C781   1.403       .  A
C780        O786   1.318       .  A
C781        C782   1.402       .  A
C781        H790   1.083       .  S
C782        C785   1.362       .  A
O783        C784   1.331       .  A
C784        C785   1.390       .  A
C785        H791   1.083       .  S
O786        C787   1.330       .  A
C787        C788   1.391       .  A
C788        H792   1.083       .  S
C793        C798   1.380       .  A
C793        C794   1.405       .  A
C793        O799   1.319       .  A
C794        C795   1.403       .  A
C794        H805   1.085       .  S
C795        C804   1.364       .  A
C795        C796   1.377       .  A
C796        C797   1.406       .  A
C796        O802   1.318       .  A
C797        C798   1.404       .  A
C797        H806   1.085       .  S
C798        C801   1.366       .  A
O799        C800   1.331       .  A
C800        C801   1.393       .  A
C801        H807   1.084       .  S
O802        C803   1.331       .  A
C803        C804   1.396       .  A
C804        H808   1.083       .  S
C809        C814   1.381       .  A
C809        C810   1.402       .  A
C809        O815   1.318       .  A
C810        C811   1.401       .  A
C810        H821   1.084       .  S
C811        C820   1.358       .  A
C811        C812   1.379       .  A
C812        C813   1.402       .  A
C812        O818   1.318       .  A
C813        C814   1.402       .  A
C813        H822   1.083       .  S
C814        C817   1.361       .  A
O815        C816   1.330       .  A
C816        C817   1.391       .  A
C817        H823   1.082       .  S
O818        C819   1.331       .  A
C819        C820   1.392       .  A
C820        H824   1.083       .  S
C825        C830   1.380       .  A
C825        C826   1.405       .  A
C825        O831   1.321       .  A
C826        C827   1.405       .  A
C826        H837   1.085       .  S
C827        C836   1.363       .  A
C827        C828   1.380       .  A
C828        C829   1.405       .  A
C828        O834   1.321       .  A
C829        C830   1.404       .  A
C829        H838   1.084       .  S
C830        C833   1.361       .  A
O831        C832   1.332       .  A
C832        C833   1.393       .  A
C833        H839   1.083       .  S
O834        C835   1.332       .  A
C835        C836   1.392       .  A
C836        H840   1.084       .  S
C841        C846   1.381       .  A
C841        C842   1.398       .  A
C841        O847   1.313       .  A
C842        C843   1.397       .  A
C842        H853   1.083       .  S
C843        C852   1.355       .  A
C843        C844   1.378       .  A
C844        C845   1.405       .  A
C844        O850   1.318       .  A
C845        C846   1.404       .  A
C845        H854   1.083       .  S
C846        C849   1.365       .  A
O847        C848   1.328       .  A
C848        C849   1.392       .  A
C849        H855   1.082       .  S
O850        C851   1.331       .  A
C851        C852   1.392       .  A
C852        H856   1.082       .  S
C857        C862   1.378       .  A
C857        C858   1.407       .  A
C857        O863   1.321       .  A
C858        C859   1.406       .  A
C858        H869   1.080       .  S
C859        C868   1.366       .  A
C859        C860   1.380       .  A
C860        C861   1.397       .  A
C860        O866   1.313       .  A
C861        C862   1.396       .  A
C861        H870   1.082       .  S
C862        C865   1.352       .  A
O863        C864   1.334       .  A
C864        C865   1.392       .  A
C865        H871   1.082       .  S
O866        C867   1.329       .  A
C867        C868   1.394       .  A
C868        H872   1.081       .  S
C873        C878   1.381       .  A
C873        C874   1.405       .  A
C873        O879   1.322       .  A
C874        C875   1.405       .  A
C874        H885   1.085       .  S
C875        C884   1.363       .  A
C875        C876   1.380       .  A
C876        C877   1.403       .  A
C876        O882   1.320       .  A
C877        C878   1.403       .  A
C877        H886   1.085       .  S
C878        C881   1.361       .  A
O879        C880   1.332       .  A
C880        C881   1.390       .  A
C881        H887   1.083       .  S
O882        C883   1.331       .  A
C883        C884   1.392       .  A
C884        H888   1.084       .  S
C889        C894   1.380       .  A
C889        C890   1.407       .  A
C889        O895   1.320       .  A
C890        C891   1.405       .  A
C890        H901   1.082       .  S
C891        C900   1.365       .  A
C891        C892   1.379       .  A
C892        C893   1.399       .  A
C892        O898   1.314       .  A
C893        C894   1.398       .  A
C893        H902   1.083       .  S
C894        C897   1.359       .  A
O895        C896   1.333       .  A
C896        C897   1.388       .  A
C897        H903   1.083       .  S
O898        C899   1.327       .  A
C899        C900   1.395       .  A
C900        H904   1.082       .  S
C905        C910   1.379       .  A
C905        C906   1.403       .  A
C905        O911   1.318       .  A
C906        C907   1.403       .  A
C906        H917   1.084       .  S
C907        C916   1.363       .  A
C907        C908   1.381       .  A
C908        C909   1.402       .  A
C908        O914   1.317       .  A
C909        C910   1.400       .  A
C909        H918   1.083       .  S
C910        C913   1.358       .  A
O911        C912   1.331       .  A
C912        C913   1.394       .  A
C913        H919   1.083       .  S
O914        C915   1.330       .  A
C915        C916   1.391       .  A
C916        H920   1.083       .  S
C921        C926   1.380       .  A
C921        C922   1.404       .  A
C921        O927   1.320       .  A
C922        C923   1.404       .  A
C922        H933   1.082       .  S
C923        C932   1.364       .  A
C923        C924   1.380       .  A
C924        C925   1.408       .  A
C924        O930   1.324       .  A
C925        C926   1.407       .  A
C925        H934   1.083       .  S
C926        C929   1.366       .  A
O927        C928   1.331       .  A
C928        C929   1.394       .  A
C929        H935   1.083       .  S
O930        C931   1.334       .  A
C931        C932   1.392       .  A
C932        H936   1.082       .  S
C937        C942   1.378       .  A
C937        C938   1.404       .  A
C937        O943   1.316       .  A
C938        C939   1.403       .  A
C938        H949   1.083       .  S
C939        C948   1.363       .  A
C939        C940   1.381       .  A
C940        C941   1.398       .  A
C940        O946   1.313       .  A
C941        C942   1.397       .  A
C941        H950   1.084       .  S
C942        C945   1.355       .  A
O943        C944   1.331       .  A
C944        C945   1.393       .  A
C945        H951   1.084       .  S
O946        C947   1.328       .  A
C947        C948   1.393       .  A
C948        H952   1.082       .  S
C953        C958   1.381       .  A
C953        C954   1.405       .  A
C953        O959   1.322       .  A
C954        C955   1.405       .  A
C954        H965   1.082       .  S
C955        C964   1.361       .  A
C955        C956   1.378       .  A
C956        C957   1.400       .  A
C956        O962   1.316       .  A
C957        C958   1.400       .  A
C957        H966   1.082       .  S
C958        C961   1.356       .  A
O959        C960   1.332       .  A
C960        C961   1.389       .  A
C961        H967   1.082       .  S
O962        C963   1.330       .  A
C963        C964   1.395       .  A
C964        H968   1.078       .  S
C969        C974   1.381       .  A
C969        C970   1.404       .  A
C969        O975   1.320       .  A
C970        C971   1.403       .  A
C970        H981   1.084       .  S
C971        C980   1.361       .  A
C971        C972   1.379       .  A
C972        C973   1.406       .  A
C972        O978   1.322       .  A
C973        C974   1.406       .  A
C973        H982   1.085       .  S
C974        C977   1.365       .  A
O975        C976   1.331       .  A
C976        C977   1.393       .  A
C977        H983   1.084       .  S
O978        C979   1.333       .  A
C979        C980   1.392       .  A
C980        H984   1.083       .  S
C985        C990   1.379       .  A
C985        C986   1.406       .  A
C985        O991   1.320       .  A
C986        C987   1.405       .  A
C986        H997   1.084       .  S
C987        C996   1.365       .  A
C987        C988   1.380       .  A
C988        C989   1.404       .  A
C988        O994   1.320       .  A
C989        C990   1.403       .  A
C989        H998   1.083       .  S
C990        C993   1.362       .  A
O991        C992   1.333       .  A
C992        C993   1.395       .  A
C993        H999   1.083       .  S
O994        C995   1.331       .  A
C995        C996   1.393       .  A
C996       H1000   1.083       .  S
C1001      C1006   1.379       .  A
C1001      C1002   1.406       .  A
C1001      O1007   1.320       .  A
C1002      C1003   1.405       .  A
C1002      H1013   1.084       .  S
C1003      C1012   1.367       .  A
C1003      C1004   1.380       .  A
C1004      C1005   1.404       .  A
C1004      O1010   1.318       .  A
C1005      C1006   1.402       .  A
C1005      H1014   1.084       .  S
C1006      C1009   1.361       .  A
O1007      C1008   1.332       .  A
C1008      C1009   1.394       .  A
C1009      H1015   1.083       .  S
O1010      C1011   1.331       .  A
C1011      C1012   1.393       .  A
C1012      H1016   1.083       .  S
C1017      C1022   1.380       .  A
C1017      C1018   1.402       .  A
C1017      O1023   1.317       .  A
C1018      C1019   1.401       .  A
C1018      H1029   1.084       .  S
C1019      C1028   1.361       .  A
C1019      C1020   1.381       .  A
C1020      C1021   1.405       .  A
C1020      O1026   1.320       .  A
C1021      C1022   1.404       .  A
C1021      H1030   1.085       .  S
C1022      C1025   1.363       .  A
O1023      C1024   1.329       .  A
C1024      C1025   1.392       .  A
C1025      H1031   1.084       .  S
O1026      C1027   1.331       .  A
C1027      C1028   1.389       .  A
C1028      H1032   1.083       .  S
C1033      C1038   1.381       .  A
C1033      C1034   1.404       .  A
C1033      O1039   1.319       .  A
C1034      C1035   1.403       .  A
C1034      H1045   1.085       .  S
C1035      C1044   1.361       .  A
C1035      C1036   1.379       .  A
C1036      C1037   1.400       .  A
C1036      O1042   1.314       .  A
C1037      C1038   1.399       .  A
C1037      H1046   1.084       .  S
C1038      C1041   1.358       .  A
O1039      C1040   1.331       .  A
C1040      C1041   1.389       .  A
C1041      H1047   1.083       .  S
O1042      C1043   1.330       .  A
C1043      C1044   1.393       .  A
C1044      H1048   1.082       .  S
C1049      C1054   1.378       .  A
C1049      C1050   1.406       .  A
C1049      O1055   1.321       .  A
C1050      C1051   1.407       .  A
C1050      H1061   1.082       .  S
C1051      C1060   1.365       .  A
C1051      C1052   1.381       .  A
C1052      C1053   1.395       .  A
C1052      O1058   1.312       .  A
C1053      C1054   1.394       .  A
C1053      H1062   1.083       .  S
C1054      C1057   1.349       .  A
O1055      C1056   1.333       .  A
C1056      C1057   1.390       .  A
C1057      H1063   1.083       .  S
O1058      C1059   1.327       .  A
C1059      C1060   1.395       .  A
C1060      H1064   1.082       .  S
C1065      C1070   1.378       .  A
C1065      C1066   1.400       .  A
C1065      O1071   1.314       .  A
C1066      C1067   1.399       .  A
C1066      H1077   1.082       .  S
C1067      C1076   1.358       .  A
C1067      C1068   1.380       .  A
C1068      C1069   1.406       .  A
C1068      O1074   1.321       .  A
C1069      C1070   1.404       .  A
C1069      H1078   1.084       .  S
C1070      C1073   1.364       .  A
O1071      C1072   1.331       .  A
C1072      C1073   1.396       .  A
C1073      H1079   1.082       .  S
O1074      C1075   1.333       .  A
C1075      C1076   1.391       .  A
C1076      H1080   1.082       .  S
C1081      C1086   1.379       .  A
C1081      C1082   1.404       .  A
C1081      O1087   1.319       .  A
C1082      C1083   1.403       .  A
C1082      H1093   1.081       .  S
C1083      C1092   1.362       .  A
C1083      C1084   1.380       .  A
C1084      C1085   1.406       .  A
C1084      O1090   1.322       .  A
C1085      C1086   1.406       .  A
C1085      H1094   1.082       .  S
C1086      C1089   1.364       .  A
O1087      C1088   1.332       .  A
C1088      C1089   1.395       .  A
C1089      H1095   1.081       .  S
O1090      C1091   1.332       .  A
C1091      C1092   1.391       .  A
C1092      H1096   1.082       .  S
C1097      C1102   1.380       .  A
C1097      C1098   1.408       .  A
C1097      O1103   1.322       .  A
C1098      C1099   1.406       .  A
C1098      H1109   1.082       .  S
C1099      C1108   1.367       .  A
C1099      C1100   1.378       .  A
C1100      C1101   1.406       .  A
C1100      O1106   1.319       .  A
C1101      C1102   1.405       .  A
C1101      H1110   1.083       .  S
C1102      C1105   1.366       .  A
O1103      C1104   1.333       .  A
C1104      C1105   1.393       .  A
C1105      H1111   1.083       .  S
O1106      C1107   1.332       .  A
C1107      C1108   1.395       .  A
C1108      H1112   1.082       .  S
C1113      C1118   1.379       .  A
C1113      C1114   1.401       .  A
C1113      O1119   1.316       .  A
C1114      C1115   1.400       .  A
C1114      H1125   1.084       .  S
C1115      C1124   1.360       .  A
C1115      C1116   1.380       .  A
C1116      C1117   1.406       .  A
C1116      O1122   1.320       .  A
C1117      C1118   1.404       .  A
C1117      H1126   1.083       .  S
C1118      C1121   1.364       .  A
O1119      C1120   1.329       .  A
C1120      C1121   1.395       .  A
C1121      H1127   1.083       .  S
O1122      C1123   1.332       .  A
C1123      C1124   1.390       .  A
C1124      H1128   1.083       .  S
C1129      C1134   1.381       .  A
C1129      C1130   1.403       .  A
C1129      O1135   1.319       .  A
C1130      C1131   1.403       .  A
C1130      H1141   1.082       .  S
C1131      C1140   1.361       .  A
C1131      C1132   1.381       .  A
C1132      C1133   1.405       .  A
C1132      O1138   1.321       .  A
C1133      C1134   1.404       .  A
C1133      H1142   1.082       .  S
C1134      C1137   1.363       .  A
O1135      C1136   1.330       .  A
C1136      C1137   1.391       .  A
C1137      H1143   1.083       .  S
O1138      C1139   1.331       .  A
C1139      C1140   1.390       .  A
C1140      H1144   1.082   1_556  S
C1145      C1150   1.381       .  A
C1145      C1146   1.399       .  A
C1145      O1151   1.315       .  A
C1146      C1147   1.398       .  A
C1146      H1157   1.082       .  S
C1147      C1156   1.354       .  A
C1147      C1148   1.378       .  A
C1148      C1149   1.405       .  A
C1148      O1154   1.320       .  A
C1149      C1150   1.405       .  A
C1149      H1158   1.083       .  S
C1150      C1153   1.363       .  A
O1151      C1152   1.329       .  A
C1152      C1153   1.393       .  A
C1153      H1159   1.083       .  S
O1154      C1155   1.332       .  A
C1155      C1156   1.392       .  A
C1156      H1160   1.080       .  S
C1161      C1166   1.381       .  A
C1161      C1162   1.404       .  A
C1161      O1167   1.320       .  A
C1162      C1163   1.403       .  A
C1162      H1173   1.083       .  S
C1163      C1172   1.361       .  A
C1163      C1164   1.380       .  A
C1164      C1165   1.398       .  A
C1164      O1170   1.314       .  A
C1165      C1166   1.398       .  A
C1165      H1174   1.081       .  S
C1166      C1169   1.356       .  A
O1167      C1168   1.331       .  A
C1168      C1169   1.388       .  A
C1169      H1175   1.082       .  S
O1170      C1171   1.329       .  A
C1171      C1172   1.393       .  A
C1172      H1176   1.081       .  S
C1177      C1182   1.378       .  A
C1177      C1178   1.401       .  A
C1177      O1183   1.316       .  A
C1178      C1179   1.401       .  A
C1178      H1189   1.082       .  S
C1179      C1188   1.359       .  A
C1179      C1180   1.380       .  A
C1180      C1181   1.399       .  A
C1180      O1186   1.314       .  A
C1181      C1182   1.398       .  A
C1181      H1190   1.085       .  S
C1182      C1185   1.353       .  A
O1183      C1184   1.330       .  A
C1184      C1185   1.394       .  A
C1185      H1191   1.083       .  S
O1186      C1187   1.330       .  A
C1187      C1188   1.392       .  A
C1188      H1192   1.081       .  S
C1193      C1198   1.381       .  A
C1193      C1194   1.406       .  A
C1193      O1199   1.323       .  A
C1194      C1195   1.405       .  A
C1194      H1205   1.083       .  S
C1195      C1204   1.362       .  A
C1195      C1196   1.380       .  A
C1196      C1197   1.401       .  A
C1196      O1202   1.318       .  A
C1197      C1198   1.401       .  A
C1197      H1206   1.082       .  S
C1198      C1201   1.358       .  A
O1199      C1200   1.332       .  A
C1200      C1201   1.389       .  A
C1201      H1207   1.082       .  S
O1202      C1203   1.329       .  A
C1203      C1204   1.392       .  A
C1204      H1208   1.083       .  S
C1209      C1214   1.379       .  A
C1209      C1210   1.406       .  A
C1209      O1215   1.320       .  A
C1210      C1211   1.405       .  A
C1210      H1221   1.083       .  S
C1211      C1220   1.366       .  A
C1211      C1212   1.381       .  A
C1212      C1213   1.401       .  A
C1212      O1218   1.316       .  A
C1213      C1214   1.399       .  A
C1213      H1222   1.082       .  S
C1214      C1217   1.358       .  A
O1215      C1216   1.332       .  A
C1216      C1217   1.390       .  A
C1217      H1223   1.082       .  S
O1218      C1219   1.329       .  A
C1219      C1220   1.393       .  A
C1220      H1224   1.083       .  S
C1225      C1230   1.380       .  A
C1225      C1226   1.405       .  A
C1225      O1231   1.319       .  A
C1226      C1227   1.403       .  A
C1226      H1237   1.084       .  S
C1227      C1236   1.363       .  A
C1227      C1228   1.379       .  A
C1228      C1229   1.401       .  A
C1228      O1234   1.315       .  A
C1229      C1230   1.400       .  A
C1229      H1238   1.084       .  S
C1230      C1233   1.361       .  A
O1231      C1232   1.332       .  A
C1232      C1233   1.390       .  A
C1233      H1239   1.084       .  S
O1234      C1235   1.329       .  A
C1235      C1236   1.395       .  A
C1236      H1240   1.083       .  S
C1241      C1246   1.379       .  A
C1241      C1242   1.405       .  A
C1241      O1247   1.321       .  A
C1242      C1243   1.405       .  A
C1242      H1253   1.084       .  S
C1243      C1252   1.364       .  A
C1243      C1244   1.380       .  A
C1244      C1245   1.406       .  A
C1244      O1250   1.321       .  A
C1245      C1246   1.405       .  A
C1245      H1254   1.084       .  S
C1246      C1249   1.364       .  A
O1247      C1248   1.332       .  A
C1248      C1249   1.394       .  A
C1249      H1255   1.083       .  S
O1250      C1251   1.332       .  A
C1251      C1252   1.392       .  A
C1252      H1256   1.083       .  S
C1257      C1262   1.378       .  A
C1257      C1258   1.405       .  A
C1257      O1263   1.320       .  A
C1258      C1259   1.405       .  A
C1258      H1269   1.082       .  S
C1259      C1268   1.363       .  A
C1259      C1260   1.381       .  A
C1260      C1261   1.398       .  A
C1260      O1266   1.315       .  A
C1261      C1262   1.398       .  A
C1261      H1270   1.083       .  S
C1262      C1265   1.353       .  A
O1263      C1264   1.333       .  A
C1264      C1265   1.393       .  A
C1265      H1271   1.083       .  S
O1266      C1267   1.329       .  A
C1267      C1268   1.394       .  A
C1268      H1272   1.081       .  S
C1273      C1278   1.380       .  A
C1273      C1274   1.407       .  A
C1273      O1279   1.322       .  A
C1274      C1275   1.406       .  A
C1274      H1285   1.084       .  S
C1275      C1284   1.366       .  A
C1275      C1276   1.378       .  A
C1276      C1277   1.404       .  A
C1276      O1282   1.319       .  A
C1277      C1278   1.404       .  A
C1277      H1286   1.084       .  S
C1278      C1281   1.363       .  A
O1279      C1280   1.333       .  A
C1280      C1281   1.392       .  A
C1281      H1287   1.083       .  S
O1282      C1283   1.332       .  A
C1283      C1284   1.396       .  A
C1284      H1288   1.083       .  S
C1289      C1294   1.379       .  A
C1289      C1290   1.406       .  A
C1289      O1295   1.322       .  A
C1290      C1291   1.406       .  A
C1290      H1301   1.081       .  S
C1291      C1300   1.364       .  A
C1291      C1292   1.380       .  A
C1292      C1293   1.406       .  A
C1292      O1298   1.322       .  A
C1293      C1294   1.405       .  A
C1293      H1302   1.080       .  S
C1294      C1297   1.363       .  A
O1295      C1296   1.333       .  A
C1296      C1297   1.392       .  A
C1297      H1303   1.080       .  S
O1298      C1299   1.332       .  A
C1299      C1300   1.392       .  A
C1300      H1304   1.082       .  S
C1305      C1310   1.380       .  A
C1305      C1306   1.405       .  A
C1305      O1311   1.319       .  A
C1306      C1307   1.404       .  A
C1306      H1317   1.083       .  S
C1307      C1316   1.364       .  A
C1307      C1308   1.378       .  A
C1308      C1309   1.404       .  A
C1308      O1314   1.317       .  A
C1309      C1310   1.403       .  A
C1309      H1318   1.084       .  S
C1310      C1313   1.364       .  A
O1311      C1312   1.332       .  A
C1312      C1313   1.392       .  A
C1313      H1319   1.083       .  S
O1314      C1315   1.331       .  A
C1315      C1316   1.395       .  A
C1316      H1320   1.082       .  S
C1321      C1326   1.380       .  A
C1321      C1322   1.405       .  A
C1321      O1327   1.320       .  A
C1322      C1323   1.404       .  A
C1322      H1333   1.082       .  S
C1323      C1332   1.363       .  A
C1323      C1324   1.380       .  A
C1324      C1325   1.403       .  A
C1324      O1330   1.318       .  A
C1325      C1326   1.402       .  A
C1325      H1334   1.081       .  S
C1326      C1329   1.362       .  A
O1327      C1328   1.332       .  A
C1328      C1329   1.390       .  A
C1329      H1335   1.082       .  S
O1330      C1331   1.330       .  A
C1331      C1332   1.392       .  A
C1332      H1336   1.081       .  S
C1337      C1342   1.380       .  A
C1337      C1338   1.406       .  A
C1337      O1343   1.321       .  A
C1338      C1339   1.405       .  A
C1338      H1349   1.081       .  S
C1339      C1348   1.363       .  A
C1339      C1340   1.377       .  A
C1340      C1341   1.402       .  A
C1340      O1346   1.316       .  A
C1341      C1342   1.401       .  A
C1341      H1350   1.082       .  S
C1342      C1345   1.359       .  A
O1343      C1344   1.333       .  A
C1344      C1345   1.392       .  A
C1345      H1351   1.082       .  S
O1346      C1347   1.332       .  A
C1347      C1348   1.398       .  A
C1348      H1352   1.078       .  S
C1353      C1358   1.380       .  A
C1353      C1354   1.397       .  A
C1353      O1359   1.313       .  A
C1354      C1355   1.396       .  A
C1354      H1365   1.084       .  S
C1355      C1364   1.354       .  A
C1355      C1356   1.378       .  A
C1356      C1357   1.409       .  A
C1356      O1362   1.322       .  A
C1357      C1358   1.409       .  A
C1357      H1366   1.082       .  S
C1358      C1361   1.369       .  A
O1359      C1360   1.328       .  A
C1360      C1361   1.396       .  A
C1361      H1367   1.082       .  S
O1362      C1363   1.335       .  A
C1363      C1364   1.391       .  A
C1364      H1368   1.084       .  S
C1369      C1374   1.380       .  A
C1369      C1370   1.398       .  A
C1369      O1375   1.313       .  A
C1370      C1371   1.396       .  A
C1370      H1381   1.084       .  S
C1371      C1380   1.354       .  A
C1371      C1372   1.378       .  A
C1372      C1373   1.408       .  A
C1372      O1378   1.321       .  A
C1373      C1374   1.407       .  A
C1373      H1382   1.082       .  S
C1374      C1377   1.368       .  A
O1375      C1376   1.329       .  A
C1376      C1377   1.396       .  A
C1377      H1383   1.082       .  S
O1378      C1379   1.334       .  A
C1379      C1380   1.392       .  A
C1380      H1384   1.083       .  S
C1385      C1390   1.380       .  A
C1385      C1386   1.405       .  A
C1385      O1391   1.321       .  A
C1386      C1387   1.405       .  A
C1386      H1397   1.082       .  S
C1387      C1396   1.363       .  A
C1387      C1388   1.377       .  A
C1388      C1389   1.403       .  A
C1388      O1394   1.317       .  A
C1389      C1390   1.402       .  A
C1389      H1398   1.081       .  S
C1390      C1393   1.360       .  A
O1391      C1392   1.332       .  A
C1392      C1393   1.392       .  A
C1393      H1399   1.081       .  S
O1394      C1395   1.333       .  A
C1395      C1396   1.397       .  A
C1396      H1400   1.076       .  S
C1401      C1406   1.378       .  A
C1401      C1402   1.404       .  A
C1401      O1407   1.319       .  A
C1402      C1403   1.404       .  A
C1402      H1413   1.085       .  S
C1403      C1412   1.363       .  A
C1403      C1404   1.380       .  A
C1404      C1405   1.405       .  A
C1404      O1410   1.321       .  A
C1405      C1406   1.404       .  A
C1405      H1414   1.084       .  S
C1406      C1409   1.362       .  A
O1407      C1408   1.331       .  A
C1408      C1409   1.396       .  A
C1409      H1415   1.083       .  S
O1410      C1411   1.332       .  A
C1411      C1412   1.392       .  A
C1412      H1416   1.084       .  S
C1417      C1422   1.380       .  A
C1417      C1418   1.403       .  A
C1417      O1423   1.318       .  A
C1418      C1419   1.402       .  A
C1418      H1429   1.083       .  S
C1419      C1428   1.361       .  A
C1419      C1420   1.381       .  A
C1420      C1421   1.404       .  A
C1420      O1426   1.320       .  A
C1421      C1422   1.403       .  A
C1421      H1430   1.084       .  S
C1422      C1425   1.362       .  A
O1423      C1424   1.331       .  A
C1424      C1425   1.392       .  A
C1425      H1431   1.083       .  S
O1426      C1427   1.331       .  A
C1427      C1428   1.390       .  A
C1428      H1432   1.083       .  S
C1433      C1438   1.378       .  A
C1433      C1434   1.403       .  A
C1433      O1439   1.317       .  A
C1434      C1435   1.402       .  A
C1434      H1445   1.083       .  S
C1435      C1444   1.362       .  A
C1435      C1436   1.380       .  A
C1436      C1437   1.408       .  A
C1436      O1442   1.322       .  A
C1437      C1438   1.406       .  A
C1437      H1446   1.082       .  S
C1438      C1441   1.365       .  A
O1439      C1440   1.330       .  A
C1440      C1441   1.398       .  A
C1441      H1447   1.082       .  S
O1442      C1443   1.334       .  A
C1443      C1444   1.391       .  A
C1444      H1448   1.083       .  S
C1449      C1454   1.381       .  A
C1449      C1450   1.405       .  A
C1449      O1455   1.322       .  A
C1450      C1451   1.405       .  A
C1450      H1461   1.083       .  S
C1451      C1460   1.363       .  A
C1451      C1452   1.380       .  A
C1452      C1453   1.401       .  A
C1452      O1458   1.318       .  A
C1453      C1454   1.401       .  A
C1453      H1462   1.083       .  S
C1454      C1457   1.358       .  A
O1455      C1456   1.331       .  A
C1456      C1457   1.389       .  A
C1457      H1463   1.083       .  S
O1458      C1459   1.329       .  A
C1459      C1460   1.393       .  A
C1460      H1464   1.083       .  S
