geometry optimzed in LAMMPS
_audit_creation_date              2020-11-30 
_audit_creation_method            'lammps2cif' 
_symmetry_space_group_name_H-M    'P1' 
_symmetry_Int_Tables_number       1 
_symmetry_cell_setting            triclinic 
loop_ 
_symmetry_equiv_pos_as_xyz 
  x,y,z 
_cell_length_a                    24.347593749597337 
_cell_length_b                    24.25888028250974 
_cell_length_c                    26.992673789648148 
_cell_angle_alpha                 88.71137644519183 
_cell_angle_beta                  82.60118124191828 
_cell_angle_gamma                 118.91710272939703 
loop_ 
_atom_site_label 
_atom_site_type_symbol 
_atom_site_fract_x 
_atom_site_fract_y 
_atom_site_fract_z 
_atom_site_charge 
C1          C  0.08515413  0.71371266  0.51228568     0.00190
C2          C  0.89559204  0.62116393  0.49627866     0.00190
In3        In  0.08936029  0.50809932  0.67722822     1.36870
C4          C  0.08782893  0.60263460  0.62638614     0.80260
O5          O  0.07834107  0.41560073  0.70990094    -0.58180
O6          O  0.00187833  0.43656806  0.72240618    -0.49100
C7          C  0.09699435  0.44624889  0.59997359     0.72930
O8          O  0.14510018  0.47802812  0.62161727    -0.43950
C9          C  0.11238769  0.54648105  0.76450426     0.77630
O10         O  0.13933457  0.60502626  0.63399751    -0.55810
O11         O  0.15631592  0.54772462  0.73213438    -0.45900
O12         O  0.03764707  0.55309805  0.64613448    -0.52240
C13         C  0.02065012  0.39661924  0.72739755     0.87810
O14         O  0.04805940  0.45040866  0.61573642    -0.54140
O15         O  0.06092936  0.53376076  0.74949105    -0.57430
In16       In  0.88629033  0.44288654  0.30625411     1.36870
C17         C  0.95860561  0.55714594  0.26066252     0.80260
O18         O  0.92841287  0.49821103  0.36845105    -0.58180
O19         O  0.83149189  0.47201823  0.36369228    -0.49100
C20         C  0.85623938  0.41369178  0.21788310     0.72930
O21         O  0.81498632  0.41037435  0.25395737    -0.43950
C22         C  0.88938874  0.34696682  0.35569411     0.77630
O23         O  0.97517093  0.51514475  0.26226497    -0.55810
O24         O  0.83765920  0.34513074  0.34964750    -0.45900
O25         O  0.90150577  0.53924354  0.27905929    -0.52240
C26         C  0.88007887  0.50292373  0.38500006     0.87810
O27         O  0.90796985  0.42158565  0.22949248    -0.54140
O28         O  0.93886899  0.39565255  0.33384717    -0.57430
C29         C  0.73473830  0.06812663  0.49888863     0.00190
C30         C  0.64195799  0.87915315  0.47452040     0.00190
In31       In  0.57771085  0.09822513  0.33592524     1.36870
C32         C  0.65177396  0.06057703  0.29071914     0.80260
O33         O  0.59057968  0.05768383  0.40187002    -0.58180
O34         O  0.65263856  0.15857837  0.37914669    -0.49100
C35         C  0.54193091  0.08672660  0.24934549     0.72930
O36         O  0.51466173  0.04069843  0.28321892    -0.43950
C37         C  0.48271883  0.09969575  0.38887014     0.77630
O38         O  0.66605381  0.11824035  0.28272514    -0.55810
O39         O  0.53198643  0.15122032  0.37001822    -0.45900
O40         O  0.60500673  0.02693956  0.32500023    -0.52240
C41         C  0.63879691  0.10934028  0.40772210     0.87810
O42         O  0.58010542  0.14020632  0.26299363    -0.54140
O43         O  0.48187094  0.04854203  0.37857208    -0.57430
In44       In  0.40916637  0.83510210  0.64799829     1.36870
C45         C  0.33624921  0.86920563  0.70004846     0.80260
O46         O  0.50431448  0.88838473  0.60448975    -0.58180
O47         O  0.45552629  0.78586202  0.60801224    -0.49100
C48         C  0.45365846  0.84050422  0.73132352     0.72930
O49         O  0.47427618  0.88960029  0.70115804    -0.43950
C50         C  0.34608831  0.82982499  0.57747308     0.77630
O51         O  0.32360333  0.81181833  0.70620599    -0.55810
O52         O  0.33238328  0.77896039  0.60381444    -0.45900
O53         O  0.38067347  0.90413348  0.66462788    -0.52240
C54         C  0.50462984  0.83861846  0.59137369     0.87810
O55         O  0.41544901  0.78828698  0.71586807    -0.54140
O56         O  0.39453112  0.88028048  0.58500157    -0.57430
In57       In  0.57102471  0.42203288  0.33107129     1.36870
C58         C  0.63418068  0.52397853  0.26993870     0.80260
O59         O  0.53052305  0.33200225  0.38024559    -0.58180
O60         O  0.48176581  0.38672844  0.38369816    -0.49100
C61         C  0.51439121  0.37396819  0.25439565     0.72930
O62         O  0.55631803  0.36240925  0.26822299    -0.43950
C63         C  0.64890194  0.48643123  0.39006967     0.77630
O64         O  0.64723899  0.47936060  0.26477503    -0.55810
O65         O  0.65769222  0.44607056  0.36544708    -0.45900
O66         O  0.59458016  0.51721428  0.30835873    -0.52240
C67         C  0.48347906  0.33810517  0.39975770     0.87810
O68         O  0.49641661  0.40439825  0.28356915    -0.54140
O69         O  0.59856269  0.48874532  0.38685903    -0.57430
In70       In  0.44630726  0.53315167  0.30008195     1.36870
C71         C  0.55046994  0.57269569  0.23632481     0.80260
O72         O  0.51627664  0.56072534  0.35257614    -0.58180
O73         O  0.48318844  0.62571173  0.33579261    -0.49100
C74         C  0.39093024  0.49257551  0.22238724     0.72930
O75         O  0.41300290  0.46321602  0.24475598    -0.43950
C76         C  0.36291835  0.44834728  0.37307352     0.77630
O77         O  0.53021869  0.61095479  0.24716442    -0.55810
O78         O  0.35575931  0.49322246  0.35568469    -0.45900
O79         O  0.51409810  0.51572353  0.25411182    -0.52240
C80         C  0.52052868  0.61430955  0.35792191     0.87810
O81         O  0.38987933  0.53874277  0.24378681    -0.54140
O82         O  0.41199814  0.44687202  0.35268030    -0.57430
In83       In  0.41991604  0.53368208  0.64601739     1.36870
C84         C  0.52558031  0.59470385  0.68082013     0.80260
O85         O  0.38268451  0.44424616  0.61064162    -0.58180
O86         O  0.32930481  0.49420342  0.61426311    -0.49100
C87         C  0.38087064  0.48637182  0.73911083     0.72930
O88         O  0.40475392  0.46292651  0.70747950    -0.43950
C89         C  0.48596502  0.61213666  0.56930822     0.77630
O90         O  0.48331785  0.61119394  0.69024859    -0.55810
O91         O  0.44593849  0.62143610  0.59839340    -0.45900
O92         O  0.51502856  0.55286080  0.65024564    -0.52240
C93         C  0.33531650  0.44763137  0.59943362     0.87810
O94         O  0.36717451  0.52652234  0.72108591    -0.54140
O95         O  0.48574639  0.56035593  0.57717770    -0.57430
C96         C  0.24798788  0.32570451  0.49774075     0.00190
C97         C  0.34328748  0.22885592  0.51666214     0.00190
In98       In  0.53032913  0.40314059  0.67942533     1.36870
C99         C  0.57201388  0.50904556  0.72058409     0.80260
O100        O  0.55746065  0.47287463  0.61442716    -0.58180
O101        O  0.62347540  0.44078027  0.62724729    -0.49100
C102        C  0.49777319  0.35630615  0.77184960     0.72930
O103        O  0.46422512  0.37334294  0.75078556    -0.43950
C104        C  0.44664364  0.32103145  0.62708525     0.77630
O105        O  0.60952709  0.48750302  0.70846188    -0.55810
O106        O  0.49159015  0.31395614  0.63971414    -0.45900
O107        O  0.51445101  0.47325199  0.71591855    -0.52240
C108        C  0.61197812  0.47841601  0.60229387     0.87810
O109        O  0.54150370  0.35218995  0.74313152    -0.54140
O110        O  0.44303092  0.36794059  0.64338558    -0.57430
C111        C  0.63423732  0.71281959  0.45970441     0.00190
C112        C  0.73012773  0.61325373  0.48643705     0.00190
C113        C  0.54438403  0.35654475  0.90606778     0.00190
C114        C  0.60391695  0.14961386  0.90002564     0.00190
C115        C  0.79202975  0.39942968  0.87532824     0.00190
C116        C  0.57876735  0.13548979  0.10621780     0.00190
C117        C  0.78001985  0.38312218  0.09472712     0.00190
C118        C  0.53741907  0.35284251  0.11257679     0.00190
C119        C  0.38197493  0.52726255  0.87778308     0.00190
C120        C  0.42235663  0.77327656  0.86574604     0.00190
C121        C  0.17197723  0.58362236  0.89705157     0.00190
C122        C  0.37338628  0.52521847  0.08488454     0.00190
C123        C  0.15473299  0.56649994  0.10253949     0.00190
C124        C  0.40199150  0.76533933  0.08585151     0.00190
C125        C  0.08599147  0.32887775  0.48842138     0.00190
C126        C  0.89626535  0.23650632  0.47015516     0.00190
In127      In  0.85663016  0.39149935  0.65197342     1.36870
C128        C  0.89219052  0.32060649  0.69476044     0.80260
O129        O  0.90116212  0.37593176  0.58353304    -0.58180
O130        O  0.79941515  0.31430233  0.60710300    -0.49100
C131        C  0.86115644  0.43573661  0.73856838     0.72930
O132        O  0.91053028  0.45747678  0.70558041    -0.43950
C133        C  0.85833525  0.48505224  0.60341503     0.77630
O134        O  0.83423344  0.30706718  0.70461075    -0.55810
O135        O  0.80585826  0.43603478  0.62117165    -0.45900
O136        O  0.92715901  0.36484254  0.66020764    -0.52240
C137        C  0.85014904  0.32766461  0.57685221     0.87810
O138        O  0.80894243  0.39693655  0.72459024    -0.54140
O139        O  0.90891642  0.48573462  0.61135934    -0.57430
In140      In  0.12217333  0.55522753  0.33436308     1.36870
C141        C  0.08705753  0.62926477  0.29657494     0.80260
O142        O  0.07321039  0.46048024  0.37349807    -0.58180
O143        O  0.17635472  0.51114249  0.35976048    -0.49100
C144        C  0.10840351  0.51953585  0.24595890     0.72930
O145        O  0.06252812  0.49329562  0.28202284    -0.43950
C146        C  0.12941081  0.61687592  0.41031035     0.77630
O147        O  0.14526723  0.64342467  0.28666460    -0.55810
O148        O  0.17988358  0.63110660  0.37944494    -0.45900
O149        O  0.05148116  0.58273642  0.32931952    -0.52240
C150        C  0.12483898  0.46204032  0.37918576     0.87810
O151        O  0.16325253  0.55437647  0.25773244    -0.54140
O152        O  0.07850337  0.56796527  0.40432245    -0.57430
C153        C  0.34688833  0.06503728  0.50556239     0.00190
C154        C  0.25377118  0.87498579  0.48328049     0.00190
In155      In  0.52226602  0.06770027  0.68116885     1.36870
C156        C  0.46093720  0.07611780  0.61021533     0.80260
O157        O  0.42885335  0.05580378  0.72182112    -0.58180
O158        O  0.45118678  0.98059859  0.72502991    -0.49100
C159        C  0.61877708  0.06819819  0.62181267     0.72930
O160        O  0.62024769  0.11889914  0.63465271    -0.43950
C161        C  0.56224630  0.08966274  0.76646953     0.77630
O162        O  0.49255833  0.12364972  0.63385940    -0.55810
O163        O  0.56251988  0.13351070  0.73903990    -0.45900
O164        O  0.46466797  0.02709546  0.62086501    -0.52240
C165        C  0.41050096  0.99855384  0.73570790     0.87810
O166        O  0.56871971  0.01766494  0.64017583    -0.54140
O167        O  0.54860164  0.03845962  0.74741040    -0.57430
In168      In  0.46201177  0.86605302  0.30106165     1.36870
C169        C  0.57754095  0.93257800  0.25192528     0.80260
O170        O  0.41428485  0.91792178  0.33756700    -0.58180
O171        O  0.36354719  0.81681048  0.34775269    -0.49100
C172        C  0.43274004  0.84075907  0.21247191     0.72930
O173        O  0.42726756  0.79759269  0.24398224    -0.43950
C174        C  0.52132274  0.86190454  0.37445916     0.77630
O175        O  0.53767934  0.95218108  0.25843112    -0.55810
O176        O  0.49106433  0.81296179  0.35176387    -0.45900
O177        O  0.55657960  0.87511093  0.26693347    -0.52240
C178        C  0.36514828  0.86823832  0.35859103     0.87810
O179        O  0.44329622  0.89261068  0.22920941    -0.54140
O180        O  0.51583716  0.90944943  0.36241567    -0.57430
C181        C  0.31701153  0.87060414  0.39538213    -0.10590
C182        C  0.28339326  0.87345666  0.43179587    -0.12150
C183        C  0.27207010  0.94158087  0.49410138    -0.10590
C184        C  0.29860316  0.99752207  0.50204704    -0.12150
C185        C  0.38485785  0.06949700  0.54547299    -0.10590
C186        C  0.42052174  0.07541856  0.57504464    -0.12150
C187        C  0.85322064  0.28892326  0.53904493    -0.10590
C188        C  0.87043027  0.26307457  0.50836797    -0.12150
C189        C  0.01841706  0.28142220  0.48494506    -0.10590
C190        C  0.96288365  0.25524537  0.47788627    -0.12150
C191        C  0.12341993  0.41240810  0.40955270    -0.10590
C192        C  0.11074371  0.37218254  0.44264288    -0.12150
C193        C  0.42803559  0.81614524  0.11841426    -0.10590
C194        C  0.43198850  0.83344561  0.15994917    -0.12150
C195        C  0.11027158  0.53517159  0.14995883    -0.10590
C196        C  0.09852295  0.51875540  0.19447164    -0.12150
C197        C  0.29384788  0.70191412  0.14736349    -0.10670
C198        C  0.32751546  0.73462303  0.10035016     0.11480
C199        C  0.28863750  0.73583908  0.06603702    -0.10670
C200        C  0.22623768  0.68670460  0.06916253    -0.10670
C201        C  0.19872629  0.63826104  0.10932119     0.11480
C202        C  0.23091075  0.65331718  0.15135474    -0.10670
H203        H  0.31613465  0.71038013  0.18039334     0.15470
H204        H  0.30817359  0.76926575  0.03287263     0.15470
H205        H  0.20541208  0.68456535  0.03638982     0.15470
H206        H  0.21163044  0.62286039  0.18529647     0.15470
C207        C  0.45734803  0.64530097  0.05636112    -0.10670
C208        C  0.41528535  0.59642452  0.09396987     0.11480
C209        C  0.39737827  0.61674805  0.13936616    -0.10670
C210        C  0.40562079  0.67764749  0.14134249    -0.10670
C211        C  0.42779118  0.71843145  0.09718853     0.11480
C212        C  0.46719953  0.70692201  0.06006789    -0.10670
H213        H  0.47673522  0.63699120  0.02125152     0.15470
H214        H  0.36693574  0.58322827  0.17090615     0.15470
H215        H  0.38900259  0.68940468  0.17612256     0.15470
H216        H  0.49657098  0.74178545  0.02868399     0.15470
C217        C  0.30261881  0.55866721  0.05094106    -0.10670
C218        C  0.30761073  0.52016677  0.08714670     0.11480
C219        C  0.25472493  0.48476061  0.12487077    -0.10670
C220        C  0.20219066  0.49453294  0.12881844    -0.10670
C221        C  0.20213856  0.54082223  0.09566916     0.11480
C222        C  0.25152434  0.56900744  0.05520163    -0.10670
H223        H  0.34262199  0.58614992  0.02233784     0.15470
H224        H  0.25460830  0.45184339  0.15260875     0.15470
H225        H  0.16364579  0.46731927  0.15901653     0.15470
H226        H  0.25299056  0.60407837  0.02950746     0.15470
C227        C  0.11821580  0.50553694  0.97687183    -0.10670
C228        C  0.13055774  0.56250078  0.95053486     0.11480
C229        C  0.11237815  0.60101952  0.97866144    -0.10670
C230        C  0.10480490  0.59438506  0.03178870    -0.10670
C231        C  0.11869383  0.55151472  0.05620587     0.11480
C232        C  0.11274605  0.50025567  0.02921558    -0.10670
H233        H  0.12236523  0.46909229  0.95704076     0.15470
H234        H  0.11114666  0.64027398  0.96000972     0.15470
H235        H  0.09842084  0.62910764  0.05250531     0.15470
H236        H  0.11403365  0.46066479  0.04725993     0.15470
C237        C  0.24350141  0.70031488  0.91598482    -0.10670
C238        C  0.21886648  0.65530612  0.88139436     0.11480
C239        C  0.25507695  0.67230780  0.83250263    -0.10670
C240        C  0.31903509  0.71836992  0.82439162    -0.10670
C241        C  0.34906332  0.74785800  0.86469805     0.11480
C242        C  0.30697260  0.74845959  0.90626364    -0.10670
H243        H  0.21839801  0.69528077  0.95280881     0.15470
H244        H  0.23802678  0.64360901  0.80205575     0.15470
H245        H  0.34440302  0.72590818  0.78764245     0.15470
H246        H  0.32427483  0.77975269  0.93529139     0.15470
C247        C  0.39578914  0.72943080  0.95298866    -0.10670
C248        C  0.43095912  0.78545902  0.92128294     0.11480
C249        C  0.46217428  0.84258784  0.94421517    -0.10670
C250        C  0.45600292  0.84083087  0.99806357    -0.10670
C251        C  0.41782633  0.78211924  0.02804608     0.11480
C252        C  0.38839951  0.72807636  0.00310815    -0.10670
H253        H  0.36958571  0.68514348  0.93801883     0.15470
H254        H  0.48931969  0.88739704  0.92135005     0.15470
H255        H  0.47959893  0.88419989  0.01564726     0.15470
H256        H  0.35810549  0.68276225  0.02380107     0.15470
C257        C  0.41725602  0.62410937  0.81583078    -0.10670
C258        C  0.42840147  0.59910009  0.85913385     0.11480
C259        C  0.46684507  0.64503513  0.88922580    -0.10670
C260        C  0.47874346  0.70745009  0.88279782    -0.10670
C261        C  0.44442099  0.72310436  0.85192329     0.11480
C262        C  0.42595654  0.68550947  0.81195327    -0.10670
H263        H  0.39177015  0.59371795  0.78896468     0.15470
H264        H  0.48192640  0.63442909  0.92184597     0.15470
H265        H  0.50544400  0.73957361  0.90874522     0.15470
H266        H  0.41406987  0.70054650  0.77932711     0.15470
C267        C  0.31016875  0.56221278  0.92337600    -0.10670
C268        C  0.31684250  0.52528365  0.88696670     0.11480
C269        C  0.26776893  0.49680724  0.85740128    -0.10670
C270        C  0.21853132  0.51194032  0.86100603    -0.10670
C271        C  0.21708478  0.55532057  0.89452419     0.11480
C272        C  0.26217496  0.57726971  0.92679024    -0.10670
H273        H  0.34734641  0.58520311  0.94530191     0.15470
H274        H  0.26841154  0.46563473  0.82972022     0.15470
H275        H  0.18362563  0.49147710  0.83626257     0.15470
H276        H  0.26319822  0.61121297  0.95181541     0.15470
C277        C  0.44765316  0.52603877  0.94859109    -0.10670
C278        C  0.39064480  0.49977737  0.92796534     0.11480
C279        C  0.33628569  0.45450607  0.96087725    -0.10670
C280        C  0.33462970  0.45414879  0.01303439    -0.10670
C281        C  0.38672297  0.50023152  0.03374409     0.11480
C282        C  0.44569614  0.52766018  0.00136596    -0.10670
H283        H  0.49309568  0.55110229  0.92421624     0.15470
H284        H  0.29220465  0.42578100  0.94691670     0.15470
H285        H  0.28937941  0.42442947  0.03668677     0.15470
H286        H  0.48959978  0.55407511  0.01612996     0.15470
C287        C  0.69364450  0.39185710  0.15656487    -0.10670
C288        C  0.73308882  0.40985890  0.11011612     0.11480
C289        C  0.71995616  0.44539758  0.07545283    -0.10670
C290        C  0.65782690  0.43516110  0.07712853    -0.10670
C291        C  0.60961640  0.39513491  0.11678482     0.11480
C292        C  0.63137464  0.37989156  0.15871830    -0.10670
H293        H  0.70728543  0.37976650  0.18969376     0.15470
H294        H  0.75396970  0.47234980  0.04235287     0.15470
H295        H  0.64853945  0.45227897  0.04404840     0.15470
H296        H  0.59837508  0.34846276  0.19005881     0.15470
C297        C  0.50570232  0.18162732  0.14447002    -0.10670
C298        C  0.55020599  0.18027655  0.10565652     0.11480
C299        C  0.57811477  0.22910235  0.06698364    -0.10670
C300        C  0.56968133  0.28101314  0.06934417    -0.10670
C301        C  0.53219386  0.28702045  0.11019562     0.11480
C302        C  0.49704736  0.23484743  0.14685448    -0.10670
H303        H  0.48037334  0.14412094  0.17459416     0.15470
H304        H  0.61330012  0.23036659  0.03814674     0.15470
H305        H  0.59791324  0.32064080  0.04185501     0.15470
H306        H  0.46559936  0.23601887  0.17844619     0.15470
C307        C  0.70118678  0.20772420  0.07165555    -0.10670
C308        C  0.64953583  0.18234180  0.11174801     0.11480
C309        C  0.66031753  0.21632252  0.15474643    -0.10670
C310        C  0.71106119  0.27742927  0.15320823    -0.10670
C311        C  0.74853124  0.30920572  0.10708733     0.11480
C312        C  0.75181416  0.26902183  0.07090223    -0.10670
H313        H  0.70123195  0.18659261  0.03742083     0.15470
H314        H  0.62412778  0.20126375  0.18685648     0.15470
H315        H  0.71638984  0.30033128  0.18719422     0.15470
H316        H  0.78793179  0.28739039  0.03779362     0.15470
C317        C  0.74696123  0.37020854  0.96379055    -0.10670
C318        C  0.80336113  0.40694788  0.93071251     0.11480
C319        C  0.85990178  0.44029687  0.95182094    -0.10670
C320        C  0.85708864  0.43507485  0.00537601    -0.10670
C321        C  0.79788150  0.39624973  0.03679526     0.11480
C322        C  0.74429386  0.36448412  0.01358320    -0.10670
H323        H  0.70326791  0.34322793  0.94984645     0.15470
H324        H  0.90500168  0.46889061  0.92771803     0.15470
H325        H  0.89993818  0.46062880  0.02165424     0.15470
H326        H  0.69811288  0.33432632  0.03529497     0.15470
C327        C  0.84571517  0.43654674  0.83508022    -0.10590
C328        C  0.86390242  0.44779105  0.79037031    -0.12150
C329        C  0.58146898  0.10881582  0.85944635    -0.10590
C330        C  0.57247246  0.09534258  0.81749832    -0.12150
C331        C  0.62077835  0.09305334  0.97673776    -0.10670
C332        C  0.58193584  0.10871514  0.95185023     0.11480
C333        C  0.52317445  0.09499125  0.98074709    -0.10670
C334        C  0.51624069  0.09167690  0.03317593    -0.10670
C335        C  0.56702248  0.09959871  0.05770771     0.11480
C336        C  0.61189574  0.08640160  0.02992319    -0.10670
H337        H  0.66117130  0.09202609  0.95572935     0.15470
H338        H  0.48663033  0.09716336  0.96314977     0.15470
H339        H  0.47527202  0.09231768  0.05356299     0.15470
H340        H  0.64612896  0.08093988  0.04841756     0.15470
C341        C  0.72154290  0.22167222  0.91400237    -0.10670
C342        C  0.67589630  0.19672069  0.88170484     0.11480
C343        C  0.69221300  0.23289112  0.83474094    -0.10670
C344        C  0.73763456  0.29696632  0.82842308    -0.10670
C345        C  0.76797485  0.32684807  0.86850904     0.11480
C346        C  0.76976484  0.28498192  0.90534557    -0.10670
H347        H  0.71695193  0.19717826  0.94912565     0.15470
H348        H  0.66297214  0.21558170  0.80568375     0.15470
H349        H  0.74406902  0.32243430  0.79363064     0.15470
H350        H  0.80155648  0.30250005  0.93276360     0.15470
C351        C  0.66129091  0.44100828  0.91584615    -0.10670
C352        C  0.61619545  0.40391633  0.88538892     0.11480
C353        C  0.64236372  0.39460901  0.83823724    -0.10670
C354        C  0.70423429  0.40353680  0.82986358    -0.10670
C355        C  0.74096162  0.42060733  0.86873016     0.11480
C356        C  0.72412272  0.45338935  0.90506702    -0.10670
H357        H  0.64934413  0.45413076  0.95146129     0.15470
H358        H  0.61259369  0.37087549  0.81074357     0.15470
H359        H  0.72044110  0.39315084  0.79435778     0.15470
H360        H  0.75556060  0.47920364  0.93123438     0.15470
C361        C  0.51516553  0.24321887  0.87794255    -0.10670
C362        C  0.54346684  0.29230307  0.90937269     0.11480
C363        C  0.58100635  0.28634363  0.94146971    -0.10670
C364        C  0.59687460  0.23906609  0.93868292    -0.10670
C365        C  0.57518563  0.19419078  0.90424062     0.11480
C366        C  0.53113030  0.19483478  0.87523702    -0.10670
H367        H  0.48330386  0.24307215  0.85353374     0.15470
H368        H  0.60392529  0.32342593  0.96467075     0.15470
H369        H  0.63112156  0.24018087  0.96050206     0.15470
H370        H  0.51053967  0.15984904  0.84931188     0.15470
C371        C  0.53904382  0.42233851  0.03450234    -0.10670
C372        C  0.51140203  0.36436338  0.06490492     0.11480
C373        C  0.46667089  0.31142272  0.04346760    -0.10670
C374        C  0.46992235  0.31137996  0.99119686    -0.10670
C375        C  0.51566465  0.36526544  0.95911633     0.11480
C376        C  0.53991691  0.42278794  0.98174638    -0.10670
H377        H  0.56499907  0.46658988  0.05041452     0.15470
H378        H  0.43659681  0.26672406  0.06606426     0.15470
H379        H  0.44265712  0.26680231  0.97607244     0.15470
H380        H  0.56589860  0.46754850  0.95865798     0.15470
C381        C  0.70722796  0.65956770  0.47679340    -0.10590
C382        C  0.67895960  0.68835017  0.46812567    -0.12150
C383        C  0.65822020  0.52762848  0.56457603    -0.10590
C384        C  0.69245436  0.57019758  0.53209667    -0.12150
C385        C  0.49313039  0.35222156  0.82551185    -0.10590
C386        C  0.50669803  0.35634614  0.86728606    -0.12150
C387        C  0.32202173  0.16008929  0.51677117    -0.10590
C388        C  0.32231211  0.11015811  0.51319172    -0.12150
C389        C  0.37302783  0.25381585  0.56173773    -0.10590
C390        C  0.40439052  0.28096437  0.59393483    -0.12150
C391        C  0.13002731  0.30362268  0.49334321    -0.10590
C392        C  0.17954696  0.30349089  0.49644864    -0.12150
C393        C  0.26426240  0.27455610  0.50539998    -0.10590
C394        C  0.29269525  0.24575114  0.51211092    -0.12150
C395        C  0.57503391  0.60863386  0.71025982    -0.10590
C396        C  0.59229348  0.57426251  0.72717754    -0.12150
C397        C  0.37920859  0.47668489  0.79238174    -0.10590
C398        C  0.38290182  0.48955218  0.83540978    -0.12150
C399        C  0.53416005  0.65834136  0.53204672    -0.10590
C400        C  0.58118434  0.68657752  0.50122370    -0.12150
C401        C  0.29371114  0.40283524  0.56902823    -0.10590
C402        C  0.26812783  0.36653272  0.53879049    -0.12150
C403        C  0.37650992  0.47965488  0.17247510    -0.10590
C404        C  0.37411588  0.48793044  0.12863680    -0.12150
C405        C  0.60320507  0.68830652  0.41513530    -0.10590
C406        C  0.56633436  0.65869130  0.38682246    -0.12150
C407        C  0.28574143  0.36567392  0.45049271    -0.10590
C408        C  0.31922001  0.40253375  0.41419202    -0.12150
C409        C  0.64892854  0.57245191  0.23079906    -0.10590
C410        C  0.61530621  0.59122315  0.21671260    -0.12150
C411        C  0.49539996  0.36064837  0.20534546    -0.10590
C412        C  0.50150495  0.35597408  0.16047830    -0.12150
C413        C  0.71685233  0.57123231  0.44619022    -0.10590
C414        C  0.69308837  0.53033004  0.41885506    -0.12150
C415        C  0.43500877  0.29366667  0.43865268    -0.10590
C416        C  0.39328366  0.26176824  0.47300981    -0.12150
C417        C  0.31488278  0.90001830  0.73618563    -0.10590
C418        C  0.34511045  0.95119119  0.75084810    -0.12150
C419        C  0.28112717  0.85043330  0.51698646    -0.11070
C420        C  0.30741507  0.83362728  0.54357550    -0.12150
C421        C  0.46676014  0.84345577  0.78210551    -0.10590
C422        C  0.45764463  0.82622812  0.82624719    -0.12150
C423        C  0.67394782  0.02841551  0.25671336    -0.10590
C424        C  0.64391015  0.97827816  0.24056028    -0.12150
C425        C  0.39138103  0.08664087  0.45842727    -0.10590
C426        C  0.43216571  0.09795271  0.42326063    -0.12150
C427        C  0.53652050  0.07847199  0.19725988    -0.10590
C428        C  0.54905066  0.09090589  0.15222042    -0.12150
C429        C  0.66261886  0.78271230  0.45839104    -0.10590
C430        C  0.66568961  0.83386870  0.46394726    -0.12150
C431        C  0.59859890  0.85651278  0.52227494    -0.10590
C432        C  0.55670797  0.84329496  0.55699651    -0.12150
C433        C  0.60190286  0.87497740  0.43656920    -0.10590
C434        C  0.56367114  0.86636680  0.40884962    -0.12150
C435        C  0.85202584  0.16688673  0.47762299    -0.10590
C436        C  0.80366152  0.11572882  0.48863215    -0.12150
C437        C  0.71809020  0.00233748  0.48646164    -0.10590
C438        C  0.69094275  0.94653181  0.47801866    -0.12150
C439        C  0.66879416  0.06781325  0.58625736    -0.10590
C440        C  0.70449203  0.06713106  0.55054889    -0.12150
C441        C  0.70543651  0.09173727  0.46696126    -0.10590
C442        C  0.67807330  0.10809258  0.44153951    -0.12150
C443        C  0.00685595  0.62237693  0.25076882    -0.10590
C444        C  0.05673233  0.65157487  0.26580211    -0.12150
C445        C  0.89534029  0.26626055  0.42133754    -0.10590
C446        C  0.89230810  0.29959893  0.38825010    -0.12150
C447        C  0.83014397  0.40965831  0.12585419    -0.10590
C448        C  0.84728864  0.41334599  0.16626071    -0.12150
C449        C  0.97380521  0.33125187  0.74033034    -0.10590
C450        C  0.92319621  0.30043353  0.72668323    -0.12150
C451        C  0.09539482  0.40490702  0.56172379    -0.10590
C452        C  0.08905080  0.36817617  0.53025503    -0.12150
C453        C  0.13133376  0.56152524  0.85798471    -0.10590
C454        C  0.11807791  0.55423890  0.81628564    -0.12150
C455        C  0.79881605  0.64160113  0.49010456    -0.10590
C456        C  0.84970901  0.64454121  0.49329699    -0.12150
C457        C  0.87355207  0.57736985  0.54154511    -0.10590
C458        C  0.86167963  0.53600746  0.57335523    -0.12150
C459        C  0.89147130  0.58217035  0.45417107    -0.10590
C460        C  0.88330072  0.54473516  0.42309740    -0.12150
C461        C  0.13272053  0.78232302  0.50383006    -0.10590
C462        C  0.18398411  0.83063347  0.49302998    -0.12150
C463        C  0.96321237  0.67001249  0.49811690    -0.10590
C464        C  0.01914339  0.69691082  0.50415206    -0.12150
C465        C  0.08608007  0.65080881  0.59462074    -0.10590
C466        C  0.08428641  0.68471902  0.56162127    -0.12150
C467        C  0.12616143  0.65634410  0.44711867    -0.10590
C468        C  0.10916633  0.68404702  0.47589001    -0.12150
loop_ 
_geom_bond_atom_site_label_1 
_geom_bond_atom_site_label_2 
_geom_bond_distance 
_geom_bond_site_symmetry_2 
_ccdc_geom_bond_type 
C1          C461   1.488       .  S
C1          C464   1.503       .  S
C1          C466   1.485       .  S
C1          C468   1.455       .  S
C2          C456   1.487       .  S
C2          C457   1.460       .  S
C2          C459   1.477       .  S
C2          C463   1.501       .  S
In3           O5   2.270       .  S
In3           O6   2.167       .  S
In3          O14   2.213       .  S
In3           O8   2.260       .  S
In3          O10   2.262       .  S
In3          O11   2.225       .  S
In3          O12   2.245       .  S
In3          O15   2.190       .  S
C4           O10   1.271       .  A
C4           O12   1.267       .  A
C4          C465   1.454       .  S
O5           C13   1.266       .  A
O6           C13   1.267       .  A
C7           O14   1.264       .  A
C7            O8   1.277       .  A
C7          C451   1.447       .  S
C9           O11   1.279       .  A
C9           O15   1.262       .  A
C9          C454   1.430       .  S
C13         C449   1.436   1_455  S
In16         O18   2.210       .  S
In16         O19   2.261       .  S
In16         O27   2.207       .  S
In16         O21   2.233       .  S
In16         O23   2.178       .  S
In16         O24   2.280       .  S
In16         O25   2.271       .  S
In16         O28   2.265       .  S
C17          O23   1.266       .  A
C17          O25   1.264       .  A
C17         C443   1.435   1_655  S
O18          C26   1.263       .  A
O19          C26   1.276       .  A
C20          O27   1.262       .  A
C20          O21   1.277       .  A
C20         C448   1.437       .  S
C22          O24   1.270       .  A
C22          O28   1.266       .  A
C22         C446   1.465       .  S
C26         C460   1.443       .  S
C29         C436   1.489       .  S
C29         C437   1.502       .  S
C29         C440   1.485       .  S
C29         C441   1.453       .  S
C30         C430   1.486       .  S
C30         C431   1.461       .  S
C30         C433   1.476       .  S
C30         C438   1.501       .  S
In31         O33   2.144       .  S
In31         O34   2.208       .  S
In31         O42   2.177       .  S
In31         O36   2.215       .  S
In31         O38   2.256       .  S
In31         O39   2.216       .  S
In31         O40   2.145       .  S
In31         O43   2.179       .  S
C32          O38   1.273       .  A
C32          O40   1.271       .  A
C32         C423   1.433       .  S
O33          C41   1.268       .  A
O34          C41   1.280       .  A
C35          O42   1.275       .  A
C35          O36   1.267       .  A
C35         C427   1.438       .  S
C37          O39   1.275       .  A
C37          O43   1.269       .  A
C37         C426   1.426       .  S
C41         C442   1.414       .  S
In44         O46   2.180       .  S
In44         O47   2.217       .  S
In44         O55   2.195       .  S
In44         O49   2.228       .  S
In44         O51   2.260       .  S
In44         O52   2.226       .  S
In44         O53   2.136       .  S
In44         O56   2.161       .  S
C45          O51   1.274       .  A
C45          O53   1.270       .  A
C45         C417   1.435       .  S
O46          C54   1.269       .  A
O47          C54   1.275       .  A
C48          O55   1.276       .  A
C48          O49   1.267       .  A
C48         C421   1.442       .  S
C50          O52   1.281       .  A
C50          O56   1.268       .  A
C50         C420   1.426       .  S
C54         C432   1.426       .  S
In57         O59   2.226       .  S
In57         O60   2.196       .  S
In57         O68   2.236       .  S
In57         O62   2.205       .  S
In57         O64   2.262       .  S
In57         O65   2.234       .  S
In57         O66   2.145       .  S
In57         O69   2.158       .  S
C58          O64   1.273       .  A
C58          O66   1.270       .  A
C58         C409   1.437       .  S
O59          C67   1.274       .  A
O60          C67   1.269       .  A
C61          O68   1.267       .  A
C61          O62   1.277       .  A
C61         C411   1.450       .  S
C63          O65   1.281       .  A
C63          O69   1.267       .  A
C63         C414   1.428       .  S
C67         C415   1.434       .  S
In70         O72   2.218       .  S
In70         O73   2.269       .  S
In70         O81   2.219       .  S
In70         O75   2.205       .  S
In70         O77   2.275       .  S
In70         O78   2.251       .  S
In70         O79   2.148       .  S
In70         O82   2.228       .  S
C71          O77   1.268       .  A
C71          O79   1.266       .  A
C71         C410   1.436       .  S
O72          C80   1.266       .  A
O73          C80   1.279       .  A
C74          O81   1.281       .  A
C74          O75   1.263       .  A
C74         C403   1.439       .  S
C76          O78   1.272       .  A
C76          O82   1.267       .  A
C76         C408   1.448       .  S
C80         C406   1.453       .  S
In83         O85   2.203       .  S
In83         O86   2.236       .  S
In83         O94   2.210       .  S
In83         O88   2.222       .  S
In83         O90   2.261       .  S
In83         O91   2.225       .  S
In83         O92   2.150       .  S
In83         O95   2.149       .  S
C84          O90   1.272       .  A
C84          O92   1.272       .  A
C84         C395   1.435       .  S
O85          C93   1.268       .  A
O86          C93   1.274       .  A
C87          O94   1.277       .  A
C87          O88   1.267       .  A
C87         C397   1.444       .  S
C89          O91   1.281       .  A
C89          O95   1.267       .  A
C89         C399   1.421       .  S
C93         C401   1.439       .  S
C96         C392   1.489       .  S
C96         C393   1.491       .  S
C96         C402   1.473       .  S
C96         C407   1.481       .  S
C97         C387   1.488       .  S
C97         C389   1.486       .  S
C97         C394   1.492       .  S
C97         C416   1.468       .  S
In98        O100   2.205       .  S
In98        O101   2.253       .  S
In98        O109   2.216       .  S
In98        O103   2.199       .  S
In98        O105   2.273       .  S
In98        O106   2.261       .  S
In98        O107   2.151       .  S
In98        O110   2.238       .  S
C99         O105   1.268       .  A
C99         O107   1.268       .  A
C99         C396   1.435       .  S
O100        C108   1.265       .  A
O101        C108   1.278       .  A
C102        O109   1.280       .  A
C102        O103   1.264       .  A
C102        C385   1.436       .  S
C104        O106   1.272       .  A
C104        O110   1.267       .  A
C104        C390   1.454       .  S
C108        C383   1.442       .  S
C111        C382   1.507       .  S
C111        C400   1.459       .  S
C111        C405   1.484       .  S
C111        C429   1.487       .  S
C112        C381   1.507       .  S
C112        C384   1.475       .  S
C112        C413   1.465       .  S
C112        C455   1.488       .  S
C113        C386   1.477       .  S
C113        C352   1.570       .  S
C113        C362   1.548       .  S
C113        C375   1.576       .  S
C114        C329   1.469       .  S
C114        C332   1.568       .  S
C114        C342   1.561       .  S
C114        C365   1.545       .  S
C115        C327   1.467       .  S
C115        C318   1.554       .  S
C115        C345   1.588       .  S
C115        C355   1.585       .  S
C116        C428   1.479       .  S
C116        C298   1.548       .  S
C116        C308   1.569       .  S
C116        C335   1.569       .  S
C117        C447   1.462       .  S
C117        C288   1.583       .  S
C117        C311   1.579       .  S
C117        C321   1.551       .  S
C118        C412   1.490       .  S
C118        C291   1.571       .  S
C118        C301   1.543       .  S
C118        C372   1.581       .  S
C119        C398   1.485       .  S
C119        C258   1.574       .  S
C119        C268   1.550       .  S
C119        C278   1.579       .  S
C120        C422   1.470       .  S
C120        C241   1.586       .  S
C120        C248   1.555       .  S
C120        C261   1.584       .  S
C121        C453   1.470       .  S
C121        C228   1.567       .  S
C121        C238   1.558       .  S
C121        C271   1.547       .  S
C122        C404   1.479       .  S
C122        C208   1.570       .  S
C122        C218   1.539       .  S
C122        C281   1.578       .  S
C123        C195   1.480       .  S
C123        C201   1.573       .  S
C123        C221   1.549       .  S
C123        C231   1.569       .  S
C124        C193   1.460       .  S
C124        C198   1.579       .  S
C124        C211   1.584       .  S
C124        C251   1.554       .  S
C125        C189   1.501       .  S
C125        C192   1.460       .  S
C125        C391   1.487       .  S
C125        C452   1.480       .  S
C126        C188   1.459       .  S
C126        C190   1.503       .  S
C126        C435   1.491       .  S
C126        C445   1.496       .  S
In127       O129   2.155       .  S
In127       O130   2.220       .  S
In127       O138   2.187       .  S
In127       O132   2.223       .  S
In127       O134   2.258       .  S
In127       O135   2.214       .  S
In127       O136   2.141       .  S
In127       O139   2.182       .  S
C128        O134   1.273       .  A
C128        O136   1.270       .  A
C128        C450   1.434       .  S
O129        C137   1.268       .  A
O130        C137   1.280       .  A
C131        O138   1.275       .  A
C131        O132   1.267       .  A
C131        C328   1.438       .  S
C133        O135   1.274       .  A
C133        O139   1.269       .  A
C133        C458   1.426       .  S
C137        C187   1.422       .  S
In140       O142   2.176       .  S
In140       O143   2.218       .  S
In140       O151   2.184       .  S
In140       O145   2.208       .  S
In140       O147   2.253       .  S
In140       O148   2.210       .  S
In140       O149   2.143       .  S
In140       O152   2.149       .  S
C141        O147   1.275       .  A
C141        O149   1.272       .  A
C141        C444   1.433       .  S
O142        C150   1.268       .  A
O143        C150   1.275       .  A
C144        O151   1.276       .  A
C144        O145   1.267       .  A
C144        C196   1.440       .  S
C146        O148   1.279       .  A
C146        O152   1.268       .  A
C146        C467   1.416       .  S
C150        C191   1.425       .  S
C153        C184   1.499   1_545  S
C153        C185   1.481       .  S
C153        C388   1.487       .  S
C153        C425   1.460       .  S
C154        C182   1.491       .  S
C154        C183   1.501       .  S
C154        C419   1.463       .  S
C154        C462   1.489       .  S
In155       O157   2.273       .  S
In155       O158   2.164   1_545  S
In155       O166   2.246       .  S
In155       O160   2.259       .  S
In155       O162   2.260       .  S
In155       O163   2.223       .  S
In155       O164   2.216       .  S
In155       O167   2.188       .  S
C156        O162   1.277       .  A
C156        O164   1.265       .  A
C156        C186   1.447       .  S
O157        C165   1.266   1_545  A
O158        C165   1.266       .  A
C159        O166   1.267       .  A
C159        O160   1.270       .  A
C159        C439   1.454       .  S
C161        O163   1.279       .  A
C161        O167   1.262       .  A
C161        C330   1.429       .  S
C165        C418   1.437       .  S
In168       O170   2.254       .  S
In168       O171   2.269       .  S
In168       O179   2.200       .  S
In168       O173   2.223       .  S
In168       O175   2.170       .  S
In168       O176   2.255       .  S
In168       O177   2.270       .  S
In168       O180   2.207       .  S
C169        O175   1.267       .  A
C169        O177   1.265       .  A
C169        C424   1.435       .  S
O170        C178   1.267       .  A
O171        C178   1.271       .  A
C172        O179   1.263       .  A
C172        O173   1.278       .  A
C172        C194   1.434       .  S
C174        O176   1.277       .  A
C174        O180   1.264       .  A
C174        C434   1.442       .  S
C178        C181   1.460       .  S
C181        C182   1.221       .  T
C183        C184   1.227       .  T
C185        C186   1.214       .  T
C187        C188   1.201       .  T
C189        C190   1.228   1_455  T
C191        C192   1.202       .  T
C193        C194   1.205       .  T
C195        C196   1.210       .  T
C197        C198   1.403       .  A
C197        C202   1.398       .  A
C197        H203   1.075       .  S
C198        C199   1.416       .  A
C199        C200   1.395       .  A
C199        H204   1.082       .  S
C200        C201   1.414       .  A
C200        H205   1.065       .  S
C201        C202   1.416       .  A
C202        H206   1.063       .  S
C207        C208   1.410       .  A
C207        C212   1.403       .  A
C207        H213   1.071       .  S
C208        C209   1.426       .  A
C209        C210   1.395       .  A
C209        H214   1.077       .  S
C210        C211   1.398       .  A
C210        H215   1.073       .  S
C211        C212   1.424       .  A
C212        H216   1.082       .  S
C217        C218   1.393       .  A
C217        C222   1.375       .  A
C217        H223   1.070       .  S
C218        C219   1.409       .  A
C219        C220   1.401       .  A
C219        H224   1.081       .  S
C220        C221   1.421       .  A
C220        H225   1.077       .  S
C221        C222   1.393       .  A
C222        H226   1.070       .  S
C227        C228   1.416       .  A
C227        C232   1.399   1_556  A
C227        H233   1.083       .  S
C228        C229   1.411       .  A
C229        C230   1.417   1_556  A
C229        H234   1.082       .  S
C230        C231   1.413       .  A
C230        H235   1.082       .  S
C231        C232   1.411       .  A
C232        H236   1.083       .  S
C237        C238   1.407       .  A
C237        C242   1.399       .  A
C237        H243   1.069       .  S
C238        C239   1.419       .  A
C239        C240   1.393       .  A
C239        H244   1.080       .  S
C240        C241   1.401       .  A
C240        H245   1.060       .  S
C241        C242   1.424       .  A
C242        H246   1.082       .  S
C247        C248   1.395       .  A
C247        C252   1.339   1_556  A
C247        H253   1.071       .  S
C248        C249   1.422       .  A
C249        C250   1.439       .  A
C249        H254   1.081       .  S
C250        C251   1.422   1_556  A
C250        H255   1.082   1_556  S
C251        C252   1.393       .  A
C252        H256   1.071       .  S
C257        C258   1.420       .  A
C257        C262   1.399       .  A
C257        H263   1.073       .  S
C258        C259   1.416       .  A
C259        C260   1.399       .  A
C259        H264   1.068       .  S
C260        C261   1.417       .  A
C260        H265   1.083       .  S
C261        C262   1.404       .  A
C262        H266   1.070       .  S
C267        C268   1.391       .  A
C267        C272   1.376       .  A
C267        H273   1.070       .  S
C268        C269   1.419       .  A
C269        C270   1.407       .  A
C269        H274   1.079       .  S
C270        C271   1.413       .  A
C270        H275   1.081       .  S
C271        C272   1.396       .  A
C272        H276   1.070       .  S
C277        C278   1.415       .  A
C277        C282   1.421   1_556  A
C277        H283   1.082       .  S
C278        C279   1.412       .  A
C279        C280   1.403   1_556  A
C279        H284   1.083       .  S
C280        C281   1.418       .  A
C280        H285   1.082       .  S
C281        C282   1.412       .  A
C282        H286   1.082       .  S
C287        C288   1.395       .  A
C287        C292   1.392       .  A
C287        H293   1.075       .  S
C288        C289   1.424       .  A
C289        C290   1.404       .  A
C289        H294   1.082       .  S
C290        C291   1.412       .  A
C290        H295   1.071       .  S
C291        C292   1.423       .  A
C292        H296   1.071       .  S
C297        C298   1.420       .  A
C297        C302   1.407       .  A
C297        H303   1.079       .  S
C298        C299   1.392       .  A
C299        C300   1.372       .  A
C299        H304   1.069       .  S
C300        C301   1.395       .  A
C300        H305   1.070       .  S
C301        C302   1.411       .  A
C302        H306   1.081       .  S
C307        C308   1.415       .  A
C307        C312   1.397       .  A
C307        H313   1.067       .  S
C308        C309   1.417       .  A
C309        C310   1.392       .  A
C309        H314   1.067       .  S
C310        C311   1.400       .  A
C310        H315   1.073       .  S
C311        C312   1.417       .  A
C312        H316   1.082       .  S
C317        C318   1.394       .  A
C317        C322   1.338   1_556  A
C317        H323   1.069       .  S
C318        C319   1.421       .  A
C319        C320   1.438   1_556  A
C319        H324   1.081       .  S
C320        C321   1.421       .  A
C320        H325   1.082       .  S
C321        C322   1.396       .  A
C322        H326   1.076       .  S
C327        C328   1.207       .  T
C329        C330   1.203       .  T
C331        C332   1.411       .  A
C331        C336   1.418   1_556  A
C331        H337   1.082       .  S
C332        C333   1.416       .  A
C333        C334   1.399   1_556  A
C333        H338   1.083       .  S
C334        C335   1.411       .  A
C334        H339   1.083       .  S
C335        C336   1.413       .  A
C336        H340   1.083       .  S
C341        C342   1.409       .  A
C341        C346   1.400       .  A
C341        H347   1.071       .  S
C342        C343   1.421       .  A
C343        C344   1.395       .  A
C343        H348   1.081       .  S
C344        C345   1.402       .  A
C344        H349   1.063       .  S
C345        C346   1.425       .  A
C346        H350   1.082       .  S
C351        C352   1.415       .  A
C351        C356   1.397       .  A
C351        H357   1.068       .  S
C352        C353   1.421       .  A
C353        C354   1.401       .  A
C353        H358   1.078       .  S
C354        C355   1.405       .  A
C354        H359   1.071       .  S
C355        C356   1.418       .  A
C356        H360   1.083       .  S
C361        C362   1.419       .  A
C361        C366   1.404       .  A
C361        H367   1.079       .  S
C362        C363   1.390       .  A
C363        C364   1.377       .  A
C363        H368   1.069       .  S
C364        C365   1.394       .  A
C364        H369   1.072       .  S
C365        C366   1.413       .  A
C366        H370   1.080       .  S
C371        C372   1.412       .  A
C371        C376   1.421   1_554  A
C371        H377   1.082       .  S
C372        C373   1.419       .  A
C373        C374   1.403   1_554  A
C373        H378   1.082       .  S
C374        C375   1.411       .  A
C374        H379   1.083       .  S
C375        C376   1.415       .  A
C376        H380   1.082       .  S
C381        C382   1.231       .  T
C383        C384   1.212       .  T
C385        C386   1.208       .  T
C387        C388   1.221       .  T
C389        C390   1.218       .  T
C391        C392   1.221       .  T
C393        C394   1.223       .  T
C395        C396   1.205       .  T
C397        C398   1.213       .  T
C399        C400   1.201       .  T
C401        C402   1.209       .  T
C403        C404   1.209       .  T
C405        C406   1.218       .  T
C407        C408   1.214       .  T
C409        C410   1.206       .  T
C411        C412   1.216       .  T
C413        C414   1.205       .  T
C415        C416   1.207       .  T
C417        C418   1.205       .  T
C419        C420   1.204       .  T
C421        C422   1.210       .  T
C423        C424   1.204   1_545  T
C425        C426   1.202       .  T
C427        C428   1.209       .  T
C429        C430   1.221       .  T
C431        C432   1.202       .  T
C433        C434   1.212       .  T
C435        C436   1.223       .  T
C437        C438   1.228   1_545  T
C439        C440   1.218       .  T
C441        C442   1.197       .  T
C443        C444   1.204       .  T
C445        C446   1.225       .  T
C447        C448   1.207       .  T
C449        C450   1.205       .  T
C451        C452   1.214       .  T
C453        C454   1.204       .  T
C455        C456   1.221       .  T
C457        C458   1.202       .  T
C459        C460   1.213       .  T
C461        C462   1.222       .  T
C463        C464   1.229   1_655  T
C465        C466   1.218       .  T
C467        C468   1.198       .  T
