geometry optimzed in LAMMPS
_audit_creation_date              2020-11-30 
_audit_creation_method            'lammps2cif' 
_symmetry_space_group_name_H-M    'P1' 
_symmetry_Int_Tables_number       1 
_symmetry_cell_setting            triclinic 
loop_ 
_symmetry_equiv_pos_as_xyz 
  x,y,z 
_cell_length_a                    43.84576137 
_cell_length_b                    43.61071389514449 
_cell_length_c                    37.33072953576621 
_cell_angle_alpha                 90.01455762684837 
_cell_angle_beta                  90.22226043291298 
_cell_angle_gamma                 90.03806665088851 
loop_ 
_atom_site_label 
_atom_site_type_symbol 
_atom_site_fract_x 
_atom_site_fract_y 
_atom_site_fract_z 
_atom_site_charge 
C1          C  0.70261938  0.23499972  0.74176053     0.03600
C2          C  0.67494971  0.23789901  0.76050832    -0.12600
C3          C  0.65235307  0.21517723  0.75829427     0.01100
C4          C  0.65771812  0.18893690  0.73750633    -0.11100
C5          C  0.68515126  0.18549208  0.71862034     0.03600
C6          C  0.70728299  0.20879328  0.72035048    -0.10500
H7          H  0.67059251  0.25791925  0.77672339     0.09200
H8          H  0.64063296  0.17099805  0.73624194     0.06700
H9          H  0.72852803  0.20594912  0.70600036     0.06500
C10         C  0.70450274  0.86861941  0.24868692     0.03600
C11         C  0.67924590  0.86266579  0.22625408    -0.12600
C12         C  0.65516944  0.88376245  0.22361944     0.01100
C13         C  0.65691795  0.91154783  0.24237732    -0.11100
C14         C  0.68204606  0.91825034  0.26425962     0.03600
C15         C  0.70557153  0.89656696  0.26773081    -0.10500
H16         H  0.67773366  0.84117002  0.21179539     0.09200
H17         H  0.63843007  0.92793182  0.24019528     0.06700
H18         H  0.72480593  0.90191284  0.28480903     0.06500
C19         C  0.70010349  0.21811918  0.23206353     0.03600
C20         C  0.70165875  0.19090850  0.25232624    -0.12600
C21         C  0.67838157  0.16887041  0.25055186     0.01100
C22         C  0.65301294  0.17422294  0.22855052    -0.11100
C23         C  0.65047186  0.20146353  0.20861584     0.03600
C24         C  0.67431146  0.22313207  0.21014707    -0.10500
H25         H  0.72112932  0.18637721  0.26929993     0.09200
H26         H  0.63501595  0.15723576  0.22738411     0.06700
H27         H  0.67247064  0.24418635  0.19492455     0.06500
N28         N  0.70216417  0.99665537  0.65801659    -0.26800
N29         N  0.69156197  0.01242242  0.68550223    -0.34700
C30         C  0.68287397  0.99277789  0.71125762     0.01500
C31         C  0.68858228  0.96319794  0.69959270     0.07500
C32         C  0.70093848  0.96650924  0.66573213    -0.05600
H33         H  0.67343576  0.99955828  0.73679131     0.08200
H34         H  0.70776066  0.94837546  0.64769008     0.09400
Cu35       Cu  0.69013722  0.05999747  0.68690126     0.44200
Cu36       Cu  0.71529319  0.01746213  0.61066904     0.42000
Cu37       Cu  0.71258742  0.10171144  0.60754949     0.43900
N38         N  0.69273967  0.10750031  0.68450168    -0.34200
N39         N  0.70203714  0.12303224  0.65612946    -0.28500
C40         C  0.70157772  0.15325423  0.66396784    -0.04600
C41         C  0.69102204  0.15676499  0.69871133     0.07600
C42         C  0.68564984  0.12729425  0.71078917     0.01400
H43         H  0.70748122  0.17133869  0.64541390     0.09100
H44         H  0.67722914  0.12069642  0.73687875     0.08200
N45         N  0.71905103  0.07350823  0.56289305    -0.35700
N46         N  0.72037321  0.04320962  0.56446569    -0.27900
C47         C  0.72257716  0.03186673  0.53110481    -0.03100
C48         C  0.72257651  0.05604889  0.50723647     0.05500
C49         C  0.72040183  0.08214704  0.52826821     0.03600
H50         H  0.72284465  0.00767543  0.52469161     0.08700
H51         H  0.71867452  0.10559759  0.51904712     0.07500
N52         N  0.69292160  0.98406116  0.32365138    -0.26800
N53         N  0.67901763  0.99741010  0.29627987    -0.34700
C54         C  0.67269076  0.97603660  0.27133006     0.01500
C55         C  0.68348182  0.94797902  0.28333049     0.07500
C56         C  0.69619897  0.95397267  0.31659061    -0.05600
H57         H  0.66196486  0.98077549  0.24578269     0.08200
H58         H  0.70686892  0.93765315  0.33449482     0.09400
Cu59       Cu  0.67242766  0.04460207  0.29194763     0.44200
Cu60       Cu  0.70668092  0.00711915  0.36960845     0.42000
Cu61       Cu  0.70730468  0.08907564  0.36328842     0.43900
N62         N  0.67764661  0.09209471  0.29025182    -0.34200
N63         N  0.69199575  0.10778402  0.31552500    -0.28500
C64         C  0.69427951  0.13724900  0.30537865    -0.04600
C65         C  0.68048023  0.14049575  0.27221112     0.07600
C66         C  0.67001714  0.11139363  0.26349071     0.01400
H67         H  0.70503349  0.15504561  0.32118835     0.08300
H68         H  0.65869459  0.10453760  0.23896812     0.08200
N69         N  0.71590767  0.06583136  0.41060752    -0.35700
N70         N  0.71563477  0.03560043  0.41295924    -0.27900
C71         C  0.71917346  0.02750962  0.44748637    -0.03100
C72         C  0.72163156  0.05395173  0.46784960     0.05500
C73         C  0.71955589  0.07782186  0.44357038     0.03600
H74         H  0.71852784  0.00414687  0.45718384     0.08700
H75         H  0.71931140  0.10209693  0.44953942     0.07500
C76         C  0.69795687  0.88324352  0.73868051     0.03600
C77         C  0.70288618  0.90973617  0.71790093    -0.12600
C78         C  0.68236984  0.93449375  0.71929258     0.01100
C79         C  0.65620620  0.93224902  0.74066117    -0.11100
C80         C  0.65074144  0.90590183  0.76108839     0.03600
C81         C  0.67176423  0.88171958  0.76027334    -0.10500
H82         H  0.72313404  0.91153720  0.70148907     0.09200
H83         H  0.64016716  0.95112542  0.74159416     0.06700
H84         H  0.66720690  0.86159770  0.77623472     0.06500
C85         C  0.35274581  0.88474042  0.74808863     0.03600
C86         C  0.37944998  0.88167429  0.76890869    -0.12600
C87         C  0.40278927  0.90376426  0.76723586     0.01100
C88         C  0.39874377  0.92970078  0.74551090    -0.11100
C89         C  0.37228057  0.93324365  0.72480638     0.03600
C90         C  0.34959888  0.91057003  0.72571234    -0.10500
H91         H  0.38243200  0.86167239  0.78574605     0.09200
H92         H  0.41627460  0.94719954  0.74452861     0.06700
H93         H  0.32920489  0.91378511  0.70978043     0.06500
C94         C  0.35111661  0.23130977  0.74020332     0.03600
C95         C  0.34702378  0.20538422  0.71810524    -0.12600
C96         C  0.36950385  0.18240987  0.71649783     0.01100
C97         C  0.39674211  0.18610051  0.73606400    -0.11100
C98         C  0.40153386  0.21214971  0.75744000     0.03600
C99         C  0.37851150  0.23436436  0.75965744    -0.10500
H100        H  0.32595841  0.20249697  0.70320957     0.09200
H101        H  0.41416675  0.16852994  0.73478825     0.06700
H102        H  0.38253373  0.25455120  0.77579260     0.06500
N103        N  0.46933717  0.86282225  0.15846787    -0.26800
N104        N  0.48460719  0.87416381  0.18601809    -0.34700
C105        C  0.46482255  0.88254657  0.21158923     0.01500
C106        C  0.43563461  0.87591023  0.19973048     0.07500
C107        C  0.43930265  0.86326409  0.16597806    -0.05600
H108        H  0.47122975  0.89262682  0.23701489     0.08200
H109        H  0.42146520  0.85591524  0.14780465     0.09400
Cu110      Cu  0.53167714  0.87710154  0.18762170     0.44200
Cu111      Cu  0.49092343  0.84995410  0.11143167     0.42000
Cu112      Cu  0.57487628  0.84831108  0.11238651     0.43900
N113        N  0.57875045  0.87412457  0.18693756    -0.34200
N114        N  0.59481870  0.86211934  0.16052060    -0.28500
C115        C  0.62463500  0.86291087  0.16957013    -0.04600
C116        C  0.62726206  0.87651840  0.20301564     0.07600
C117        C  0.59774336  0.88330526  0.21308815     0.01400
H118        H  0.64303669  0.85520272  0.15258804     0.09100
H119        H  0.59052869  0.89400768  0.23778985     0.08200
N120        N  0.54809969  0.84336572  0.06646670    -0.35700
N121        N  0.51790879  0.84395184  0.06639202    -0.27900
C122        C  0.50782712  0.84349587  0.03234904    -0.03100
C123        C  0.53274535  0.84276086  0.00981732     0.05500
C124        C  0.55792973  0.84257643  0.03232779     0.03600
H125        H  0.48409840  0.84534758  0.02461326     0.08700
H126        H  0.58164448  0.84348196  0.02450158     0.07500
N127        N  0.59045852  0.88910584  0.82515030    -0.26800
N128        N  0.57476198  0.90406864  0.80041987    -0.34700
C129        C  0.59391773  0.91334108  0.77450559     0.01500
C130        C  0.62298839  0.90337056  0.78316153     0.07500
C131        C  0.61991905  0.88808521  0.81543098    -0.05600
H132        H  0.58693698  0.92506797  0.75029458     0.08200
H133        H  0.63770837  0.87672841  0.83056838     0.09400
Cu134      Cu  0.52758365  0.90749620  0.80071839     0.44200
Cu135      Cu  0.57116764  0.87020361  0.87066970     0.42000
Cu136      Cu  0.48861939  0.86720686  0.87187846     0.43900
N137        N  0.48070943  0.90109315  0.80217586    -0.34200
N138        N  0.46647367  0.88523032  0.82723696    -0.28500
C139        C  0.43657736  0.88369218  0.81893046    -0.04600
C140        C  0.43174912  0.89960815  0.78725732     0.07600
C141        C  0.46028883  0.91031518  0.77750866     0.01400
H142        H  0.41961752  0.87208391  0.83494735     0.09100
H143        H  0.46600987  0.92313560  0.75365518     0.08200
N144        N  0.51606103  0.85566800  0.91540693    -0.35700
N145        N  0.54620078  0.85673076  0.91498982    -0.27900
C146        C  0.55689419  0.85087612  0.94814008    -0.03100
C147        C  0.53228448  0.84604356  0.97053033     0.05500
C148        C  0.50679128  0.84914171  0.94884496     0.03600
H149        H  0.58071918  0.85174970  0.95571939     0.08700
H150        H  0.48318225  0.84829547  0.95709245     0.07500
N151        N  0.58905373  0.22464855  0.14717264    -0.26800
N152        N  0.57417950  0.20636901  0.16926292    -0.34700
C153        C  0.59363590  0.19537294  0.19394374     0.01500
C154        C  0.62235488  0.20732938  0.18739431     0.07500
C155        C  0.61854798  0.22595762  0.15751360    -0.05600
H156        H  0.58703756  0.18048837  0.21575390     0.08200
H157        H  0.63594041  0.23918410  0.14404310     0.09400
Cu158      Cu  0.52752394  0.19974400  0.16764905     0.44200
Cu159      Cu  0.56758493  0.24553480  0.10360480     0.42000
Cu160      Cu  0.48406055  0.24288370  0.10295938     0.43900
N161        N  0.48086113  0.20567008  0.17065791    -0.34200
N162        N  0.46494414  0.22295533  0.14832733    -0.28500
C163        C  0.43597223  0.22463191  0.16007626    -0.04600
C164        C  0.43360130  0.20727846  0.19107693     0.07600
C165        C  0.46251960  0.19559480  0.19686837     0.01400
H166        H  0.41796665  0.23733559  0.14689565     0.09100
H167        H  0.47000284  0.18167643  0.21921549     0.08200
N168        N  0.51034540  0.25615246  0.05922561    -0.35700
N169        N  0.54051949  0.25727244  0.05961194    -0.27900
C170        C  0.55045953  0.26313085  0.02623512    -0.03100
C171        C  0.52545567  0.26567122  0.00367105     0.05500
C172        C  0.50039154  0.26128485  0.02556705     0.03600
H173        H  0.57422469  0.26349995  0.01857377     0.08700
H174        H  0.47676285  0.25990111  0.01726731     0.07500
N175        N  0.46489695  0.23248612  0.81697322    -0.26800
N176        N  0.47972158  0.21735443  0.79175494    -0.34700
C177        C  0.45951327  0.20712244  0.76723172     0.01500
C178        C  0.43058919  0.21653092  0.77728127     0.07500
C179        C  0.43496388  0.23258841  0.80894339    -0.05600
H180        H  0.46557354  0.19467908  0.74322742     0.08200
H181        H  0.41764465  0.24344849  0.82513010     0.09400
Cu182      Cu  0.52702341  0.21351005  0.79042900     0.44200
Cu183      Cu  0.48567692  0.25139735  0.86205159     0.42000
Cu184      Cu  0.56778780  0.25050346  0.86362825     0.43900
N185        N  0.57423849  0.21831267  0.79226865    -0.34200
N186        N  0.58888641  0.23301762  0.81812699    -0.28500
C187        C  0.61878397  0.23397727  0.81018905    -0.04600
C188        C  0.62328449  0.21890644  0.77794783     0.07600
C189        C  0.59451562  0.20919609  0.76744299     0.01400
H190        H  0.63600269  0.24469153  0.82683505     0.09100
H191        H  0.58860049  0.19723813  0.74299038     0.08200
N192        N  0.54140812  0.26142149  0.90807752    -0.35700
N193        N  0.51125767  0.26181602  0.90748957    -0.27900
C194        C  0.50094201  0.26535219  0.94117401    -0.03100
C195        C  0.52578317  0.26709799  0.96412685     0.05500
C196        C  0.55105588  0.26474993  0.94213745     0.03600
H197        H  0.47714230  0.26444186  0.94863901     0.08700
H198        H  0.57465109  0.26323678  0.95052079     0.07500
C199        C  0.35695978  0.86581038  0.24043477     0.03600
C200        C  0.38338193  0.86055892  0.21986577    -0.12600
C201        C  0.40693269  0.88235797  0.21882613     0.01100
C202        C  0.40361456  0.91014031  0.23724355    -0.11100
C203        C  0.37738870  0.91610333  0.25734899     0.03600
C204        C  0.35438105  0.89367225  0.25938174    -0.10500
H205        H  0.38640350  0.83916935  0.20566849     0.09200
H206        H  0.42168278  0.92709066  0.23620241     0.06700
H207        H  0.33422910  0.89820868  0.27522472     0.06500
C208        C  0.35904572  0.22129425  0.24028631     0.03600
C209        C  0.35620693  0.19335831  0.25894983    -0.12600
C210        C  0.37784198  0.16982535  0.25466614     0.01100
C211        C  0.40293129  0.17467685  0.23226655    -0.11100
C212        C  0.40646289  0.20243880  0.21380811     0.03600
C213        C  0.38435360  0.22549436  0.21759865    -0.10500
H214        H  0.33679272  0.18962753  0.27627177     0.09200
H215        H  0.41981667  0.15675268  0.22921575     0.06700
H216        H  0.38736210  0.24677467  0.20322872     0.06500
N217        N  0.35721081  0.99290464  0.65860947    -0.26800
N218        N  0.36690949  0.00961377  0.68588454    -0.34700
C219        C  0.37403316  0.99097420  0.71332484     0.01500
C220        C  0.36813124  0.96110105  0.70295698     0.07500
C221        C  0.35738783  0.96312773  0.66812261    -0.05600
H222        H  0.38226138  0.99865240  0.73917149     0.08200
H223        H  0.35075475  0.94436489  0.65079821     0.09400
Cu224      Cu  0.36819073  0.05708598  0.68493341     0.44200
Cu225      Cu  0.34616652  0.01219305  0.60962750     0.42000
Cu226      Cu  0.34355607  0.09701517  0.60549665     0.43900
N227        N  0.36403657  0.10433967  0.68205877    -0.34200
N228        N  0.35353298  0.11940834  0.65386103    -0.28500
C229        C  0.35300474  0.14966647  0.66173753    -0.04600
C230        C  0.36422432  0.15361316  0.69630778     0.07600
C231        C  0.37095895  0.12437828  0.70817473     0.01400
H232        H  0.34605993  0.16750964  0.64331340     0.09100
H233        H  0.38014771  0.11807587  0.73408355     0.08200
N234        N  0.34122337  0.06769724  0.56101553    -0.35700
N235        N  0.34220397  0.03737849  0.56285876    -0.27900
C236        C  0.34241502  0.02568417  0.52953170    -0.03100
C237        C  0.34152364  0.04964501  0.50541872     0.05500
C238        C  0.34072862  0.07595748  0.52623746     0.03600
H239        H  0.34398139  0.00149012  0.52339756     0.08700
H240        H  0.34070117  0.09941658  0.51683450     0.07500
N241        N  0.36558901  0.98085302  0.31788623    -0.26800
N242        N  0.37688842  0.99528387  0.28968969    -0.34700
C243        C  0.38285682  0.97448972  0.26397537     0.01500
C244        C  0.37442499  0.94573990  0.27632092     0.07500
C245        C  0.36351813  0.95068100  0.31054555    -0.05600
H246        H  0.39208242  0.97996425  0.23790731     0.08200
H247        H  0.35532834  0.93351935  0.32908728     0.09400
Cu248      Cu  0.38140303  0.04294337  0.28599514     0.44200
Cu249      Cu  0.35469243  0.00222650  0.36598040     0.42000
Cu250      Cu  0.35149844  0.08421863  0.36182832     0.43900
N251        N  0.37636141  0.09062959  0.28731555    -0.34200
N252        N  0.36377894  0.10523097  0.31454159    -0.28500
C253        C  0.36203111  0.13532214  0.30701236    -0.04600
C254        C  0.37440994  0.14014908  0.27350112     0.07600
C255        C  0.38338188  0.11129197  0.26181412     0.01400
H256        H  0.35309813  0.15249603  0.32504978     0.09100
H257        H  0.39376208  0.10566707  0.23640721     0.08200
N258        N  0.34651510  0.05996828  0.40887814    -0.35700
N259        N  0.34788766  0.02974824  0.41077625    -0.27900
C260        C  0.34579751  0.02129083  0.44537107    -0.03100
C261        C  0.34302017  0.04753853  0.46607648     0.05500
C262        C  0.34355492  0.07158885  0.44202668     0.03600
H263        H  0.34694859  0.99785828  0.45477470     0.08700
H264        H  0.34265501  0.09581542  0.44816243     0.07500
C265        C  0.85080723  0.73277733  0.74935708     0.03600
C266        C  0.87895593  0.73644648  0.73185646    -0.12600
C267        C  0.90209920  0.71442952  0.73517104     0.01100
C268        C  0.89680781  0.68807702  0.75571810    -0.11100
C269        C  0.86899251  0.68394387  0.77353507     0.03600
C270        C  0.84622795  0.70652455  0.77071541    -0.10500
H271        H  0.88334664  0.75669990  0.71607750     0.09200
H272        H  0.91435666  0.67068903  0.75791237     0.06700
H273        H  0.82471575  0.70318069  0.78436125     0.06500
C274        C  0.20149792  0.71830168  0.26504783     0.03600
C275        C  0.17604640  0.72262704  0.28747050    -0.12600
C276        C  0.15290990  0.70042588  0.28942929     0.01100
C277        C  0.15567492  0.67319650  0.26977137    -0.11100
C278        C  0.18086101  0.66820097  0.24757316     0.03600
C279        C  0.20349812  0.69098957  0.24493725    -0.10500
H280        H  0.17347798  0.74359547  0.30259219     0.09200
H281        H  0.13792035  0.65596072  0.27139993     0.06700
H282        H  0.22289495  0.68720211  0.22760675     0.06500
C283        C  0.85694860  0.71769681  0.26618115     0.03600
C284        C  0.85624879  0.69063098  0.24558456    -0.12600
C285        C  0.87998287  0.66914105  0.24770231     0.01100
C286        C  0.90488006  0.67491012  0.27023245    -0.11100
C287        C  0.90654343  0.70210910  0.29030554     0.03600
C288        C  0.88225993  0.72313326  0.28868646    -0.10500
H289        H  0.83720654  0.68585510  0.22799807     0.09200
H290        H  0.92332695  0.65842799  0.27146991     0.06700
H291        H  0.88355727  0.74417205  0.30404388     0.06500
N292        N  0.96744801  0.73537405  0.67992919    -0.26800
N293        N  0.98124680  0.71909902  0.70508115    -0.34700
C294        C  0.96018316  0.70872519  0.72824924     0.01500
C295        C  0.93180136  0.71919358  0.71729065     0.07500
C296        C  0.93735652  0.73604335  0.68656584    -0.05600
H297        H  0.96529533  0.69527084  0.75185547     0.08200
H298        H  0.92074290  0.74762672  0.66989998     0.09400
Cu299      Cu  0.02830697  0.71358095  0.70809353     0.44200
Cu300      Cu  0.98959194  0.75440867  0.63642645     0.42000
Cu301      Cu  0.07166389  0.74911859  0.63714404     0.43900
N302        N  0.07559240  0.71753254  0.70878548    -0.34200
N303        N  0.09125860  0.73185953  0.68363887    -0.28500
C304        C  0.12088817  0.73254995  0.69313896    -0.04600
C305        C  0.12412416  0.71767784  0.72570475     0.07600
C306        C  0.09492121  0.70836349  0.73474291     0.01400
H307        H  0.13877560  0.74284947  0.67729514     0.09100
H308        H  0.08807400  0.69658212  0.75891174     0.08200
N309        N  0.04628567  0.76023366  0.59193955    -0.35700
N310        N  0.01622982  0.76257988  0.59182345    -0.27900
C311        C  0.00640405  0.76596928  0.55788268    -0.03100
C312        C  0.03147669  0.76553218  0.53553240     0.05500
C313        C  0.05639014  0.76204552  0.55804231     0.03600
H314        H  0.98265644  0.76637650  0.54992698     0.08700
H315        H  0.07991135  0.75888220  0.55022697     0.07500
N316        N  0.09279226  0.72184880  0.35222487    -0.26800
N317        N  0.07679010  0.70749124  0.32731884    -0.34700
C318        C  0.09569105  0.69738975  0.30168703     0.01500
C319        C  0.12510462  0.70602727  0.31068241     0.07500
C320        C  0.12243579  0.72163670  0.34287564    -0.05600
H321        H  0.08841012  0.68547682  0.27770703     0.08200
H322        H  0.14064958  0.73186345  0.35843947     0.09400
Cu323      Cu  0.02977798  0.70489914  0.32793322     0.44200
Cu324      Cu  0.07237972  0.74023334  0.39742970     0.42000
Cu325      Cu  0.98834925  0.74599654  0.39615900     0.43900
N326        N  0.98299605  0.71029560  0.32770276    -0.34200
N327        N  0.96754750  0.72651676  0.35139425    -0.28500
C328        C  0.93781212  0.72642395  0.34196672    -0.04600
C329        C  0.93454522  0.70896262  0.31108587     0.07600
C330        C  0.96370772  0.69923299  0.30292192     0.01400
H331        H  0.91990559  0.73771307  0.35681867     0.09100
H332        H  0.97062338  0.68561285  0.28014055     0.08200
N333        N  0.01578807  0.75586455  0.44033989    -0.35700
N334        N  0.04588849  0.75342112  0.44073961    -0.27900
C335        C  0.05608441  0.75797860  0.47432773    -0.03100
C336        C  0.03131629  0.76348750  0.49617246     0.05500
C337        C  0.00614210  0.76209998  0.47374567     0.03600
H338        H  0.07967781  0.75579097  0.48250836     0.08700
H339        H  0.98243796  0.76373429  0.48144580     0.07500
C340        C  0.20268301  0.73140555  0.76618087     0.03600
C341        C  0.20591361  0.70484414  0.78748860    -0.12600
C342        C  0.18304063  0.68220781  0.78769139     0.01100
C343        C  0.15632104  0.68676906  0.76758358    -0.11100
C344        C  0.15250306  0.71318011  0.74667015     0.03600
C345        C  0.17591894  0.73513615  0.74571171    -0.10500
H346        H  0.22655768  0.70101343  0.80279061     0.09200
H347        H  0.13858811  0.66945236  0.76785161     0.06700
H348        H  0.17300869  0.75549784  0.72944235     0.06500
C349        C  0.20009368  0.38406636  0.74867853     0.03600
C350        C  0.20423222  0.40940721  0.77161082    -0.12600
C351        C  0.18250519  0.43310974  0.77281789     0.01100
C352        C  0.15601089  0.43085867  0.75170386    -0.11100
C353        C  0.15113972  0.40546948  0.72931854     0.03600
C354        C  0.17336942  0.38237840  0.72773278    -0.10500
H355        H  0.22475059  0.41115782  0.78774663     0.09200
H356        H  0.13910146  0.44892786  0.75276516     0.06700
H357        H  0.16926245  0.36267463  0.71084641     0.06500
C358        C  0.85801635  0.38285145  0.75667772     0.03600
C359        C  0.85359741  0.40909092  0.77808343    -0.12600
C360        C  0.87416041  0.43382391  0.77651426     0.01100
C361        C  0.89982542  0.43178526  0.75433674    -0.11100
C362        C  0.90485511  0.40567562  0.73336681     0.03600
C363        C  0.88381885  0.38148654  0.73443051    -0.10500
H364        H  0.83364391  0.41077588  0.79499474     0.09200
H365        H  0.91583228  0.45069646  0.75319693     0.06700
H366        H  0.88790973  0.36157367  0.71795425     0.06500
N367        N  0.19125829  0.60568929  0.18353644    -0.26800
N368        N  0.17945092  0.59041938  0.21074921    -0.34700
C369        C  0.17386145  0.61023856  0.23760178     0.01500
C370        C  0.18301751  0.63928853  0.22691601     0.07500
C371        C  0.19396010  0.63547451  0.19249195    -0.05600
H372        H  0.16454087  0.60385840  0.26333785     0.08200
H373        H  0.20281225  0.65310984  0.17501020     0.09400
Cu374      Cu  0.17459684  0.54282331  0.21087182     0.44200
Cu375      Cu  0.20276764  0.58521510  0.13533897     0.42000
Cu376      Cu  0.20660993  0.50250556  0.13365203     0.43900
N377        N  0.18079276  0.49544466  0.20817968    -0.34200
N378        N  0.19409789  0.48108143  0.18119489    -0.28500
C379        C  0.19688071  0.45111545  0.18938595    -0.04600
C380        C  0.18436607  0.44629592  0.22290454     0.07600
C381        C  0.17427901  0.47487873  0.23390007     0.01400
H382        H  0.20669219  0.43400943  0.17190039     0.09100
H383        H  0.16360736  0.48045641  0.25915821     0.08200
N384        N  0.21325173  0.52976466  0.08858681    -0.35700
N385        N  0.21166277  0.56003163  0.08943983    -0.27900
C386        C  0.21497129  0.57101274  0.05604023    -0.03100
C387        C  0.21876635  0.54653283  0.03292833     0.05500
C388        C  0.21761341  0.52069036  0.05447608     0.03600
H389        H  0.21368538  0.59504078  0.04900612     0.08700
H390        H  0.21882019  0.49703134  0.04588956     0.07500
N391        N  0.20037170  0.49200155  0.83972476    -0.26800
N392        N  0.18713609  0.50873466  0.81456056    -0.34700
C393        C  0.17883991  0.49041122  0.78725637     0.01500
C394        C  0.18752677  0.46067713  0.79528632     0.07500
C395        C  0.20126285  0.46254880  0.82875062    -0.05600
H396        H  0.16774737  0.49828685  0.76301705     0.08200
H397        H  0.21047892  0.44379913  0.84435473     0.09400
Cu398      Cu  0.18253347  0.55607205  0.81699636     0.44200
Cu399      Cu  0.21426119  0.51032035  0.88869692     0.42000
Cu400      Cu  0.21202168  0.59452189  0.89419312     0.43900
N401        N  0.18657570  0.60341824  0.82031332    -0.34200
N402        N  0.19902551  0.61779316  0.84789905    -0.28500
C403        C  0.20015146  0.64809580  0.84069817    -0.04600
C404        C  0.18735046  0.65293221  0.80713441     0.07600
C405        C  0.17899255  0.62408508  0.79512794     0.01400
H406        H  0.20901046  0.66534131  0.85879757     0.09100
H407        H  0.16870856  0.61844152  0.76957122     0.08200
N408        N  0.21834688  0.56546495  0.93786861    -0.35700
N409        N  0.21936071  0.53515951  0.93604786    -0.27900
C410        C  0.22088269  0.52371821  0.96954164    -0.03100
C411        C  0.22066115  0.54794224  0.99351818     0.05500
C412        C  0.21915460  0.57400607  0.97247748     0.03600
H413        H  0.22064455  0.49952984  0.97596341     0.08700
H414        H  0.21735633  0.59746509  0.98164166     0.07500
N415        N  0.87025807  0.60912160  0.18070817    -0.26800
N416        N  0.88229729  0.59286060  0.20710474    -0.34700
C417        C  0.88833745  0.61175423  0.23481939     0.01500
C418        C  0.87914218  0.64111396  0.22547750     0.07500
C419        C  0.86784734  0.63852326  0.19101740    -0.05600
H420        H  0.89752100  0.60445551  0.26036289     0.08200
H421        H  0.85849313  0.65667656  0.17457764     0.09400
Cu422      Cu  0.88608139  0.54519383  0.20550871     0.44200
Cu423      Cu  0.85707000  0.59121697  0.13177727     0.42000
Cu424      Cu  0.85191918  0.50926789  0.12690496     0.43900
N425        N  0.87894353  0.49808972  0.20028520    -0.34200
N426        N  0.86494735  0.48527961  0.17260593    -0.28500
C427        C  0.86175559  0.45501996  0.17882192    -0.04600
C428        C  0.87469949  0.44833862  0.21180085     0.07600
C429        C  0.88544507  0.47620576  0.22454986     0.01400
H430        H  0.85120380  0.43900794  0.16042291     0.09100
H431        H  0.89644232  0.48042219  0.25007220     0.08200
N432        N  0.84518283  0.53788880  0.08302812    -0.35700
N433        N  0.84719648  0.56808566  0.08481046    -0.27900
C434        C  0.84403747  0.57990532  0.05170002    -0.03100
C435        C  0.83991538  0.55593956  0.02789400     0.05500
C436        C  0.84069463  0.52965291  0.04869364     0.03600
H437        H  0.84579264  0.60404119  0.04532820     0.08700
H438        H  0.83927556  0.50618946  0.03943360     0.07500
N439        N  0.85578571  0.49614206  0.83831136    -0.26800
N440        N  0.86644118  0.51172625  0.81071636    -0.34700
C441        C  0.87453732  0.49198876  0.78483306     0.01500
C442        C  0.86843825  0.46249697  0.79649498     0.07500
C443        C  0.85642927  0.46596594  0.83053158    -0.05600
H444        H  0.88380359  0.49866995  0.75917825     0.08200
H445        H  0.84943349  0.44792565  0.84860972     0.09400
Cu446      Cu  0.86838417  0.55920605  0.80893903     0.44200
Cu447      Cu  0.84325738  0.51745754  0.88564033     0.42000
Cu448      Cu  0.84491064  0.60184723  0.88703384     0.43900
N449        N  0.86430092  0.60657113  0.80990227    -0.34200
N450        N  0.85433878  0.62236845  0.83774744    -0.28500
C451        C  0.85345207  0.65235963  0.82890118    -0.04600
C452        C  0.86377636  0.65544912  0.79403130     0.07600
C453        C  0.87052388  0.62598732  0.78295268     0.01400
H454        H  0.84690764  0.67062851  0.84689926     0.09100
H455        H  0.87932334  0.61914281  0.75712072     0.08200
N456        N  0.84009291  0.57426667  0.93243714    -0.35700
N457        N  0.83897583  0.54393729  0.93146421    -0.27900
C458        C  0.83769273  0.53306527  0.96509410    -0.03100
C459        C  0.83817677  0.55757207  0.98851173     0.05500
C460        C  0.83964131  0.58339151  0.96694024     0.03600
H461        H  0.83776033  0.50896663  0.97195830     0.08700
H462        H  0.84135459  0.60698968  0.97566143     0.07500
C463        C  0.85424674  0.36831062  0.24510738     0.03600
C464        C  0.85303481  0.39643122  0.22640815    -0.12600
C465        C  0.87658041  0.41815519  0.22991409     0.01100
C466        C  0.90195531  0.41124733  0.25135269    -0.11100
C467        C  0.90382057  0.38336410  0.26989984     0.03600
C468        C  0.87972903  0.36221779  0.26717618    -0.10500
H469        H  0.83359430  0.40194005  0.20973749     0.09200
H470        H  0.92038153  0.42771072  0.25368652     0.06700
H471        H  0.88125591  0.34070442  0.28157740     0.06500
C472        C  0.20233517  0.36748318  0.26173161     0.03600
C473        C  0.20482116  0.39487093  0.24183719    -0.12600
C474        C  0.18151712  0.41700300  0.24264143     0.01100
C475        C  0.15515517  0.41122795  0.26258650    -0.11100
C476        C  0.15190690  0.38393020  0.28197816     0.03600
C477        C  0.17573638  0.36242641  0.28207616    -0.10500
H478        H  0.22510844  0.39927426  0.22617915     0.09200
H479        H  0.13691854  0.42798839  0.26276756     0.06700
H480        H  0.17289764  0.34146907  0.29714836     0.06500
N481        N  0.96484355  0.38870536  0.66893454    -0.26800
N482        N  0.98016284  0.40551938  0.69235657    -0.34700
C483        C  0.96096504  0.41511011  0.71801240     0.01500
C484        C  0.93225345  0.40346840  0.71062219     0.07500
C485        C  0.93556460  0.38689130  0.67924381    -0.05600
H486        H  0.96780484  0.42810900  0.74138702     0.08200
H487        H  0.91814640  0.37398491  0.66522443     0.09400
Cu488      Cu  0.02713924  0.41079797  0.69174670     0.44200
Cu489      Cu  0.98447204  0.36798743  0.62478599     0.42000
Cu490      Cu  0.06693668  0.36848664  0.62344928     0.43900
N491        N  0.07405059  0.40490394  0.69160490    -0.34200
N492        N  0.08850591  0.38832321  0.66739080    -0.28500
C493        C  0.11814183  0.38642937  0.67659081    -0.04600
C494        C  0.12262690  0.40273519  0.70807790     0.07600
C495        C  0.09412126  0.41421224  0.71670466     0.01400
H496        H  0.13508348  0.37387516  0.66156616     0.09100
H497        H  0.08809643  0.42720431  0.74032230     0.08200
N498        N  0.04002958  0.35402113  0.58070391    -0.35700
N499        N  0.00987984  0.35380639  0.58122153    -0.27900
C500        C  0.99935131  0.34687488  0.54830167    -0.03100
C501        C  0.02406685  0.34265157  0.52594020     0.05500
C502        C  0.04948092  0.34716710  0.54742922     0.03600
H503        H  0.97550718  0.34690089  0.54074397     0.08700
H504        H  0.07305895  0.34750745  0.53900924     0.07500
N505        N  0.96297029  0.36355293  0.33542152    -0.26800
N506        N  0.97958567  0.37531847  0.30933134    -0.34700
C507        C  0.96117116  0.38360046  0.28218288     0.01500
C508        C  0.93145610  0.37648342  0.29129188     0.07500
C509        C  0.93340273  0.36365500  0.32522533    -0.05600
H510        H  0.96888725  0.39403067  0.25753500     0.08200
H511        H  0.91466166  0.35600670  0.34173605     0.09400
Cu512      Cu  0.02668792  0.37903409  0.31087401     0.44200
Cu513      Cu  0.98208398  0.35023791  0.38425432     0.42000
Cu514      Cu  0.06623174  0.34715360  0.38576233     0.43900
N515        N  0.07378048  0.37593702  0.31367033    -0.34200
N516        N  0.08855662  0.36267388  0.34038677    -0.28500
C517        C  0.11868086  0.36305205  0.33334490    -0.04600
C518        C  0.12296212  0.37764400  0.30077136     0.07600
C519        C  0.09399597  0.38550178  0.28915898     0.01400
H520        H  0.13615333  0.35407812  0.35098312     0.09100
H521        H  0.08797957  0.39689479  0.26438271     0.08200
N522        N  0.03864436  0.34111878  0.43021055    -0.35700
N523        N  0.00847703  0.34255051  0.43001949    -0.27900
C524        C  0.99850974  0.34155409  0.46408457    -0.03100
C525        C  0.02357503  0.33957106  0.48665699     0.05500
C526        C  0.04856135  0.33919691  0.46424287     0.03600
H527        H  0.97489982  0.34402142  0.47188070     0.08700
H528        H  0.07233248  0.33948647  0.47210541     0.07500
C529        C  0.26846297  0.32334678  0.24563221     0.30200
C530        C  0.29667068  0.31645116  0.22986414    -0.36100
C531        C  0.30925465  0.28778364  0.23853973     0.16200
C532        C  0.29515959  0.26730843  0.26119824     0.22000
C533        C  0.26699991  0.27426308  0.27710880    -0.34200
C534        C  0.25437482  0.30292332  0.26836599     0.16100
O535        O  0.25232031  0.34853328  0.24061112    -0.26200
C536        C  0.22738767  0.34438066  0.26038470     0.05900
C537        C  0.22761054  0.31624689  0.27832813    -0.31100
O538        O  0.31075003  0.24160349  0.26500049    -0.23000
C539        C  0.33529765  0.24550971  0.24448030    -0.03000
C540        C  0.33544342  0.27403597  0.22743754    -0.17400
H541        H  0.30787372  0.33220301  0.21178428     0.20600
H542        H  0.25557709  0.25831856  0.29476373     0.19000
H543        H  0.21058356  0.30656470  0.29588186     0.18900
H544        H  0.35205327  0.28347374  0.20917064     0.14800
C545        C  0.26504465  0.76473023  0.24373494     0.30200
C546        C  0.29192958  0.77276063  0.22565012    -0.36100
C547        C  0.30512946  0.80096419  0.23525250     0.16200
C548        C  0.29276623  0.82000332  0.26082655     0.22000
C549        C  0.26586162  0.81198692  0.27889346    -0.34200
C550        C  0.25268001  0.78376243  0.26931239     0.16100
O551        O  0.24893652  0.73943948  0.23900500    -0.26200
C552        C  0.22576701  0.74214522  0.26183854     0.05900
C553        C  0.22711047  0.76943293  0.28144769    -0.31100
O554        O  0.30903702  0.84516069  0.26576996    -0.23000
C555        C  0.33231988  0.84232498  0.24310978    -0.03000
C556        C  0.33086193  0.81514066  0.22334788    -0.17400
H557        H  0.30191479  0.75800373  0.20554470     0.20600
H558        H  0.25593249  0.82669501  0.29908620     0.19000
H559        H  0.21171787  0.77779403  0.30178186     0.18900
H560        H  0.34634201  0.80673916  0.20312389     0.14800
C561        C  0.28824400  0.28120884  0.73022591     0.30200
C562        C  0.26182763  0.29307014  0.71403139    -0.36100
C563        C  0.24938938  0.31936120  0.73003292     0.16200
C564        C  0.26198552  0.33311167  0.75987279     0.22000
C565        C  0.28838534  0.32123550  0.77610186    -0.34200
C566        C  0.30082996  0.29494814  0.76008462     0.16100
O567        O  0.30386784  0.25701208  0.71952414    -0.26200
C568        C  0.32697251  0.25519771  0.74273194     0.05900
C569        C  0.32598425  0.27825642  0.76870784    -0.31100
O570        O  0.24657887  0.35753813  0.77027031    -0.23000
C571        C  0.22361652  0.35950573  0.74686588    -0.03000
C572        C  0.22443991  0.33626126  0.72112602    -0.17400
H573        H  0.25171800  0.28259329  0.69053078     0.20600
H574        H  0.29858150  0.33180496  0.79949591     0.19000
H575        H  0.34136999  0.28235488  0.79091005     0.18900
H576        H  0.20919961  0.33226714  0.69876557     0.14800
C577        C  0.30461778  0.82211080  0.76777744     0.30200
C578        C  0.29536069  0.79555838  0.78605573    -0.36100
C579        C  0.26793958  0.78217441  0.77437263     0.16200
C580        C  0.25078976  0.79412236  0.74669297     0.22000
C581        C  0.26003926  0.82067553  0.72840562    -0.34200
C582        C  0.28746964  0.83403411  0.74008294     0.16100
O583        O  0.32953803  0.83821481  0.77414912    -0.26200
C584        C  0.32848627  0.86091588  0.75026405     0.05900
C585        C  0.30264811  0.85934190  0.72831887    -0.31100
O586        O  0.22589842  0.77799537  0.74030863    -0.23000
C587        C  0.22697330  0.75523169  0.76414277    -0.03000
C588        C  0.25278601  0.75679300  0.78608325    -0.17400
H589        H  0.30863381  0.78598251  0.80783458     0.20600
H590        H  0.24677706  0.83024615  0.70661038     0.19000
H591        H  0.29590130  0.87430630  0.70660714     0.18900
H592        H  0.25947758  0.74174543  0.80774398     0.14800
C593        C  0.78457662  0.77869530  0.75277140     0.30200
C594        C  0.75551537  0.78745384  0.76455904    -0.36100
C595        C  0.74444050  0.81539177  0.75115598     0.16200
C596        C  0.76066805  0.83345304  0.72767810     0.22000
C597        C  0.78960162  0.82454038  0.71559273    -0.34200
C598        C  0.80074725  0.79667374  0.72915147     0.16100
O599        O  0.79978094  0.75400732  0.76279368    -0.26200
C600        C  0.82620133  0.75608383  0.74541743     0.05900
C601        C  0.82785190  0.78228767  0.72393825    -0.31100
O602        O  0.74641287  0.85924329  0.71976038    -0.23000
C603        C  0.72058958  0.85780957  0.73842302    -0.03000
C604        C  0.71823771  0.83078245  0.75833162    -0.17400
H605        H  0.74268323  0.77375270  0.78340151     0.20600
H606        H  0.80276601  0.83863032  0.69746945     0.19000
H607        H  0.84623074  0.79013144  0.70703926     0.18900
H608        H  0.70036307  0.82345396  0.77625615     0.14800
C609        C  0.74971917  0.28188238  0.22471424     0.30200
C610        C  0.75950098  0.31080019  0.21264745    -0.36100
C611        C  0.78751771  0.32129581  0.22647570     0.16200
C612        C  0.80471190  0.30451854  0.25042880     0.22000
C613        C  0.79497789  0.27563763  0.26240998    -0.34200
C614        C  0.76700753  0.26519449  0.24864044     0.16100
O615        O  0.72417080  0.26769296  0.21563011    -0.26200
C616        C  0.72500215  0.24144934  0.23399875     0.05900
C617        C  0.75135357  0.23884138  0.25497280    -0.31100
O618        O  0.83007347  0.31868811  0.25999162    -0.23000
C619        C  0.82935631  0.34508495  0.24199503    -0.03000
C620        C  0.80322257  0.34782571  0.22063469    -0.17400
H621        H  0.74617039  0.32421968  0.19391359     0.20600
H622        H  0.80824428  0.26226973  0.28126231     0.19000
H623        H  0.75830945  0.22047548  0.27262467     0.18900
H624        H  0.79649919  0.36645451  0.20322380     0.14800
C625        C  0.75340043  0.80443371  0.24452866     0.30200
C626        C  0.76311588  0.77547194  0.23281530    -0.36100
C627        C  0.79052859  0.76469525  0.24768620     0.16200
C628        C  0.80725701  0.78118206  0.27238461     0.22000
C629        C  0.79748807  0.81012564  0.28418406    -0.34200
C630        C  0.77008180  0.82094286  0.26925680     0.16100
O631        O  0.72851632  0.81892998  0.23406455    -0.26200
C632        C  0.72908752  0.84523545  0.25226609     0.05900
C633        C  0.75460796  0.84760785  0.27463985    -0.31100
O634        O  0.83243567  0.76687663  0.28230357    -0.23000
C635        C  0.83196957  0.74075615  0.26372501    -0.03000
C636        C  0.80620034  0.73828509  0.24176560    -0.17400
H637        H  0.75026879  0.76231230  0.21333013     0.20600
H638        H  0.81043593  0.82336647  0.30349864     0.19000
H639        H  0.76105133  0.86604103  0.29250615     0.18900
H640        H  0.79975795  0.72004492  0.22363549     0.14800
C641        C  0.79378590  0.33465282  0.76509993     0.30200
C642        C  0.76411567  0.32669167  0.77556818    -0.36100
C643        C  0.75265766  0.29910054  0.76155054     0.16200
C644        C  0.76920676  0.28051977  0.73896508     0.22000
C645        C  0.79895502  0.28837071  0.72870306    -0.34200
C646        C  0.81036755  0.31600966  0.74261555     0.16100
O647        O  0.80849983  0.36004085  0.77369609    -0.26200
C648        C  0.83496749  0.35777711  0.75645472     0.05900
C649        C  0.83731822  0.33056065  0.73688251    -0.31100
O650        O  0.75389088  0.25590978  0.72884927    -0.23000
C651        C  0.72702924  0.25861690  0.74515530    -0.03000
C652        C  0.72513169  0.28525026  0.76587153    -0.17400
H653        H  0.75072793  0.34120634  0.79298608     0.20600
H654        H  0.81213782  0.27413635  0.71076056     0.19000
H655        H  0.85567224  0.32262003  0.72001558     0.18900
H656        H  0.70645072  0.29352753  0.78200632     0.14800
loop_ 
_geom_bond_atom_site_label_1 
_geom_bond_atom_site_label_2 
_geom_bond_distance 
_geom_bond_site_symmetry_2 
_ccdc_geom_bond_type 
C1            C2   1.409       .  A
C1            C6   1.410       .  A
C1          C651   1.490       .  S
C2            C3   1.403       .  A
C2            H7   1.080       .  S
C3            C4   1.403       .  A
C3          C188   1.482       .  S
C4            C5   1.405       .  A
C4            H8   1.084       .  S
C5            C6   1.406       .  A
C5           C41   1.480       .  S
C6            H9   1.084       .  S
C10          C11   1.410       .  A
C10          C15   1.412       .  A
C10         C632   1.490       .  S
C11          C12   1.404       .  A
C11          H16   1.083       .  S
C12          C13   1.401       .  A
C12         C116   1.477       .  S
C13          C14   1.400       .  A
C13          H17   1.084       .  S
C14          C15   1.405       .  A
C14          C55   1.480       .  S
C15          H18   1.081       .  S
C19          C20   1.409       .  A
C19          C24   1.410       .  A
C19         C616   1.493       .  S
C20          C21   1.403       .  A
C20          H25   1.080       .  S
C21          C22   1.400       .  A
C21          C65   1.481       .  S
C22          C23   1.406       .  A
C22          H26   1.083       .  S
C23          C24   1.410       .  A
C23         C154   1.485       .  S
C24          H27   1.083       .  S
N28          N29   1.321   1_565  A
N28          C32   1.347       .  A
N28         Cu36   2.070   1_565  S
N29          C30   1.344   1_545  A
N29         Cu35   2.076       .  S
C30          C31   1.385       .  A
C30          H33   1.082       .  S
C31          C32   1.385       .  A
C31          C78   1.478       .  S
C32          H34   1.082       .  S
Cu35         N38   2.077       .  S
Cu36         N46   2.071       .  S
Cu37         N39   2.091       .  S
Cu37         N45   2.092       .  S
N38          N39   1.323       .  A
N38          C42   1.344       .  A
N39          C40   1.350       .  A
C40          C41   1.387       .  A
C40          H43   1.082       .  S
C41          C42   1.383       .  A
C42          H44   1.082       .  S
N45          N46   1.324       .  A
N45          C49   1.348       .  A
N46          C47   1.344       .  A
C47          C48   1.381       .  A
C47          H50   1.082       .  S
C48          C49   1.386       .  A
C48          C72   1.474       .  S
C49          H51   1.082       .  S
N52          N53   1.323       .  A
N52          C56   1.346       .  A
N52         Cu60   2.076   1_565  S
N53          C54   1.346       .  A
N53         Cu59   2.085   1_565  S
C54          C55   1.386       .  A
C54          H57   1.082       .  S
C55          C56   1.384       .  A
C56          H58   1.082       .  S
Cu59         N62   2.085       .  S
Cu60         N70   2.076       .  S
Cu61         N63   2.071       .  S
Cu61         N69   2.070       .  S
N62          N63   1.322       .  A
N62          C66   1.348       .  A
N63          C64   1.344       .  A
C64          C65   1.383       .  A
C64          H67   1.082       .  S
C65          C66   1.387       .  A
C66          H68   1.082       .  S
N69          N70   1.321       .  A
N69          C73   1.346       .  A
N70          C71   1.345       .  A
C71          C72   1.385       .  A
C71          H74   1.082       .  S
C72          C73   1.383       .  A
C73          H75   1.082       .  S
C76          C77   1.409       .  A
C76          C81   1.407       .  A
C76         C603   1.489       .  S
C77          C78   1.407       .  A
C77          H82   1.083       .  S
C78          C79   1.403       .  A
C79          C80   1.400       .  A
C79          H83   1.084       .  S
C80          C81   1.402       .  A
C80         C130   1.476       .  S
C81          H84   1.080       .  S
C85          C86   1.409       .  A
C85          C90   1.409       .  A
C85         C584   1.489       .  S
C86          C87   1.407       .  A
C86          H91   1.083       .  S
C87          C88   1.403       .  A
C87         C140   1.482       .  S
C88          C89   1.400       .  A
C88          H92   1.084       .  S
C89          C90   1.402       .  A
C89         C220   1.474       .  S
C90          H93   1.081       .  S
C94          C95   1.410       .  A
C94          C99   1.407       .  A
C94         C568   1.489       .  S
C95          C96   1.407       .  A
C95         H100   1.084       .  S
C96          C97   1.407       .  A
C96         C230   1.482       .  S
C97          C98   1.403       .  A
C97         H101   1.084       .  S
C98          C99   1.402       .  A
C98         C178   1.483       .  S
C99         H102   1.081       .  S
N103        N104   1.321       .  A
N103        C107   1.348       .  A
N103       Cu111   2.075       .  S
N104        C105   1.343       .  A
N104       Cu110   2.068       .  S
C105        C106   1.383       .  A
C105        H108   1.082       .  S
C106        C107   1.385       .  A
C106        C201   1.476       .  S
C107        H109   1.082       .  S
Cu110       N113   2.068       .  S
Cu111       N121   2.076       .  S
Cu112       N114   2.084       .  S
Cu112       N120   2.085       .  S
N113        N114   1.322       .  A
N113        C117   1.342       .  A
N114        C115   1.349       .  A
C115        C116   1.387       .  A
C115        H118   1.082       .  S
C116        C117   1.381       .  A
C117        H119   1.082       .  S
N120        N121   1.324       .  A
N120        C124   1.347       .  A
N121        C122   1.344       .  A
C122        C123   1.382       .  A
C122        H125   1.082       .  S
C123        C124   1.385       .  A
C123        C147   1.474   1_554  S
C124        H126   1.082       .  S
N127        N128   1.322       .  A
N127        C131   1.344       .  A
N127       Cu135   2.072       .  S
N128        C129   1.346       .  A
N128       Cu134   2.074       .  S
C129        C130   1.384       .  A
C129        H132   1.082       .  S
C130        C131   1.384       .  A
C131        H133   1.082       .  S
Cu134       N137   2.075       .  S
Cu135       N145   2.072       .  S
Cu136       N138   2.080       .  S
Cu136       N144   2.080       .  S
N137        N138   1.322       .  A
N137        C141   1.344       .  A
N138        C139   1.347       .  A
C139        C140   1.387       .  A
C139        H142   1.082       .  S
C140        C141   1.385       .  A
C141        H143   1.082       .  S
N144        N145   1.322       .  A
N144        C148   1.345       .  A
N145        C146   1.346       .  A
C146        C147   1.384       .  A
C146        H149   1.082       .  S
C147        C148   1.384       .  A
C148        H150   1.082       .  S
N151        N152   1.321       .  A
N151        C155   1.349       .  A
N151       Cu159   2.086       .  S
N152        C153   1.342       .  A
N152       Cu158   2.066       .  S
C153        C154   1.385       .  A
C153        H156   1.082       .  S
C154        C155   1.390       .  A
C155        H157   1.082       .  S
Cu158       N161   2.066       .  S
Cu159       N169   2.087       .  S
Cu160       N162   2.083       .  S
Cu160       N168   2.084       .  S
N161        N162   1.322       .  A
N161        C165   1.343       .  A
N162        C163   1.348       .  A
C163        C164   1.387       .  A
C163        H166   1.082       .  S
C164        C165   1.383       .  A
C164        C212   1.479       .  S
C165        H167   1.082       .  S
N168        N169   1.324       .  A
N168        C172   1.347       .  A
N169        C170   1.346       .  A
C170        C171   1.384       .  A
C170        H173   1.082       .  S
C171        C172   1.385       .  A
C171        C195   1.478   1_554  S
C172        H174   1.082       .  S
N175        N176   1.323       .  A
N175        C179   1.345       .  A
N175       Cu183   2.081       .  S
N176        C177   1.347       .  A
N176       Cu182   2.082       .  S
C177        C178   1.386       .  A
C177        H180   1.082       .  S
C178        C179   1.386       .  A
C179        H181   1.082       .  S
Cu182       N185   2.081       .  S
Cu183       N193   2.080       .  S
Cu184       N186   2.082       .  S
Cu184       N192   2.082       .  S
N185        N186   1.323       .  A
N185        C189   1.347       .  A
N186        C187   1.346       .  A
C187        C188   1.386       .  A
C187        H190   1.082       .  S
C188        C189   1.385       .  A
C189        H191   1.082       .  S
N192        N193   1.322       .  A
N192        C196   1.346       .  A
N193        C194   1.347       .  A
C194        C195   1.385       .  A
C194        H197   1.082       .  S
C195        C196   1.385       .  A
C196        H198   1.082       .  S
C199        C200   1.411       .  A
C199        C204   1.411       .  A
C199        C555   1.492       .  S
C200        C201   1.404       .  A
C200        H205   1.081       .  S
C201        C202   1.401       .  A
C202        C203   1.400       .  A
C202        H206   1.084       .  S
C203        C204   1.407       .  A
C203        C244   1.480       .  S
C204        H207   1.083       .  S
C208        C209   1.409       .  A
C208        C213   1.410       .  A
C208        C539   1.492       .  S
C209        C210   1.408       .  A
C209        H214   1.083       .  S
C210        C211   1.400       .  A
C210        C254   1.481       .  S
C211        C212   1.402       .  A
C211        H215   1.083       .  S
C212        C213   1.405       .  A
C213        H216   1.080       .  S
N217        N218   1.321   1_565  A
N217        C221   1.346       .  A
N217       Cu225   2.069   1_565  S
N218        C219   1.344   1_545  A
N218       Cu224   2.071       .  S
C219        C220   1.383       .  A
C219        H222   1.082       .  S
C220        C221   1.384       .  A
C221        H223   1.082       .  S
Cu224       N227   2.072       .  S
Cu225       N235   2.070       .  S
Cu226       N228   2.097       .  S
Cu226       N234   2.098       .  S
N227        N228   1.322       .  A
N227        C231   1.343       .  A
N228        C229   1.352       .  A
C229        C230   1.390       .  A
C229        H232   1.082       .  S
C230        C231   1.382       .  A
C231        H233   1.082       .  S
N234        N235   1.325       .  A
N234        C238   1.348       .  A
N235        C236   1.345       .  A
C236        C237   1.380       .  A
C236        H239   1.082       .  S
C237        C238   1.386       .  A
C237        C261   1.473       .  S
C238        H240   1.082       .  S
N241        N242   1.324       .  A
N241        C245   1.347       .  A
N241       Cu249   2.080   1_565  S
N242        C243   1.347       .  A
N242       Cu248   2.092   1_565  S
C243        C244   1.386       .  A
C243        H246   1.082       .  S
C244        C245   1.383       .  A
C245        H247   1.082       .  S
Cu248       N251   2.092       .  S
Cu249       N259   2.081       .  S
Cu250       N252   2.062       .  S
Cu250       N258   2.063       .  S
N251        N252   1.322       .  A
N251        C255   1.347       .  A
N252        C253   1.344       .  A
C253        C254   1.382       .  A
C253        H256   1.082       .  S
C254        C255   1.389       .  A
C255        H257   1.082       .  S
N258        N259   1.321       .  A
N258        C262   1.344       .  A
N259        C260   1.347       .  A
C260        C261   1.387       .  A
C260        H263   1.082   1_545  S
C261        C262   1.381       .  A
C262        H264   1.082       .  S
C265        C266   1.408       .  A
C265        C270   1.410       .  A
C265        C600   1.490       .  S
C266        C267   1.403       .  A
C266        H271   1.079       .  S
C267        C268   1.402       .  A
C267        C295   1.480       .  S
C268        C269   1.403       .  A
C268        H272   1.084       .  S
C269        C270   1.406       .  A
C269        C452   1.478       .  S
C270        H273   1.084       .  S
C274        C275   1.410       .  A
C274        C279   1.411       .  A
C274        C552   1.492       .  S
C275        C276   1.404       .  A
C275        H280   1.081       .  S
C276        C277   1.401       .  A
C276        C319   1.478       .  S
C277        C278   1.400       .  A
C277        H281   1.084       .  S
C278        C279   1.408       .  A
C278        C370   1.481       .  S
C279        H282   1.083       .  S
C283        C284   1.409       .  A
C283        C288   1.409       .  A
C283        C635   1.490       .  S
C284        C285   1.403       .  A
C284        H289   1.080       .  S
C285        C286   1.398       .  A
C285        C418   1.477       .  S
C286        C287   1.405       .  A
C286        H290   1.083       .  S
C287        C288   1.407       .  A
C287        C329   1.480       .  S
C288        H291   1.083       .  S
N292        N293   1.322       .  A
N292        C296   1.344       .  A
N292       Cu300   2.069       .  S
N293        C294   1.346       .  A
N293       Cu299   2.080   1_655  S
C294        C295   1.386       .  A
C294        H297   1.082       .  S
C295        C296   1.385       .  A
C296        H298   1.082       .  S
Cu299       N302   2.080       .  S
Cu300       N310   2.068   1_655  S
Cu301       N303   2.075       .  S
Cu301       N309   2.075       .  S
N302        N303   1.322       .  A
N302        C306   1.346       .  A
N303        C304   1.346       .  A
C304        C305   1.385       .  A
C304        H307   1.082       .  S
C305        C306   1.386       .  A
C305        C344   1.481       .  S
C306        H308   1.082       .  S
N309        N310   1.322       .  A
N309        C313   1.345       .  A
N310        C311   1.345       .  A
C311        C312   1.383       .  A
C311        H314   1.082   1_455  S
C312        C313   1.384       .  A
C312        C336   1.472       .  S
C313        H315   1.082       .  S
N316        N317   1.320       .  A
N316        C320   1.347       .  A
N316       Cu324   2.075       .  S
N317        C318   1.343       .  A
N317       Cu323   2.065       .  S
C318        C319   1.383       .  A
C318        H321   1.082       .  S
C319        C320   1.386       .  A
C320        H322   1.082       .  S
Cu323       N326   2.065   1_455  S
Cu324       N334   2.076       .  S
Cu325       N327   2.081       .  S
Cu325       N333   2.082   1_655  S
N326        N327   1.322       .  A
N326        C330   1.340       .  A
N327        C328   1.349       .  A
C328        C329   1.388       .  A
C328        H331   1.082       .  S
C329        C330   1.383       .  A
C330        H332   1.082       .  S
N333        N334   1.324       .  A
N333        C337   1.346       .  A
N334        C335   1.344       .  A
C335        C336   1.382       .  A
C335        H338   1.082       .  S
C336        C337   1.384       .  A
C337        H339   1.082   1_455  S
C340        C341   1.412       .  A
C340        C345   1.407       .  A
C340        C587   1.490       .  S
C341        C342   1.407       .  A
C341        H346   1.082       .  S
C342        C343   1.403       .  A
C342        C404   1.481       .  S
C343        C344   1.401       .  A
C343        H347   1.084       .  S
C344        C345   1.404       .  A
C345        H348   1.083       .  S
C349        C350   1.409       .  A
C349        C354   1.408       .  A
C349        C571   1.489       .  S
C350        C351   1.407       .  A
C350        H355   1.083       .  S
C351        C352   1.405       .  A
C351        C394   1.482       .  S
C352        C353   1.403       .  A
C352        H356   1.083       .  S
C353        C354   1.403       .  A
C353        C494   1.483       .  S
C354        H357   1.080       .  S
C358        C359   1.409       .  A
C358        C363   1.407       .  A
C358        C648   1.488       .  S
C359        C360   1.407       .  A
C359        H364   1.083       .  S
C360        C361   1.402       .  A
C360        C442   1.478       .  S
C361        C362   1.400       .  A
C361        H365   1.084       .  S
C362        C363   1.401       .  A
C362        C484   1.477       .  S
C363        H366   1.080       .  S
N367        N368   1.322       .  A
N367        C371   1.346       .  A
N367       Cu375   2.073       .  S
N368        C369   1.347       .  A
N368       Cu374   2.086       .  S
C369        C370   1.388       .  A
C369        H372   1.082       .  S
C370        C371   1.383       .  A
C371        H373   1.082       .  S
Cu374       N377   2.087       .  S
Cu375       N385   2.073       .  S
Cu376       N378   2.081       .  S
Cu376       N384   2.081       .  S
N377        N378   1.324       .  A
N377        C381   1.345       .  A
N378        C379   1.348       .  A
C379        C380   1.384       .  A
C379        H382   1.082       .  S
C380        C381   1.386       .  A
C380        C474   1.480       .  S
C381        H383   1.082       .  S
N384        N385   1.322       .  A
N384        C388   1.348       .  A
N385        C386   1.344       .  A
C386        C387   1.383       .  A
C386        H389   1.082       .  S
C387        C388   1.386       .  A
C387        C411   1.475   1_554  S
C388        H390   1.082       .  S
N391        N392   1.322       .  A
N391        C395   1.349       .  A
N391       Cu399   2.084       .  S
N392        C393   1.344       .  A
N392       Cu398   2.076       .  S
C393        C394   1.384       .  A
C393        H396   1.082       .  S
C394        C395   1.387       .  A
C395        H397   1.082       .  S
Cu398       N401   2.076       .  S
Cu399       N409   2.084       .  S
Cu400       N402   2.082       .  S
Cu400       N408   2.083       .  S
N401        N402   1.321       .  A
N401        C405   1.344       .  A
N402        C403   1.350       .  A
C403        C404   1.387       .  A
C403        H406   1.082       .  S
C404        C405   1.384       .  A
C405        H407   1.082       .  S
N408        N409   1.324       .  A
N408        C412   1.345       .  A
N409        C410   1.348       .  A
C410        C411   1.385       .  A
C410        H413   1.082       .  S
C411        C412   1.383       .  A
C412        H414   1.082       .  S
N415        N416   1.323       .  A
N415        C419   1.343       .  A
N415       Cu423   2.067       .  S
N416        C417   1.348       .  A
N416       Cu422   2.086       .  S
C417        C418   1.387       .  A
C417        H420   1.082       .  S
C418        C419   1.381       .  A
C419        H421   1.082       .  S
Cu422       N425   2.087       .  S
Cu423       N433   2.067       .  S
Cu424       N426   2.080       .  S
Cu424       N432   2.080       .  S
N425        N426   1.323       .  A
N425        C429   1.346       .  A
N426        C427   1.347       .  A
C427        C428   1.385       .  A
C427        H430   1.082       .  S
C428        C429   1.387       .  A
C428        C465   1.482       .  S
C429        H431   1.082       .  S
N432        N433   1.321       .  A
N432        C436   1.345       .  A
N433        C434   1.346       .  A
C434        C435   1.383       .  A
C434        H437   1.082       .  S
C435        C436   1.385       .  A
C435        C459   1.474   1_554  S
C436        H438   1.082       .  S
N439        N440   1.321       .  A
N439        C443   1.348       .  A
N439       Cu447   2.072       .  S
N440        C441   1.343       .  A
N440       Cu446   2.073       .  S
C441        C442   1.384       .  A
C441        H444   1.082       .  S
C442        C443   1.386       .  A
C443        H445   1.082       .  S
Cu446       N449   2.074       .  S
Cu447       N457   2.073       .  S
Cu448       N450   2.089       .  S
Cu448       N456   2.090       .  S
N449        N450   1.323       .  A
N449        C453   1.344       .  A
N450        C451   1.350       .  A
C451        C452   1.386       .  A
C451        H454   1.082       .  S
C452        C453   1.382       .  A
C453        H455   1.082       .  S
N456        N457   1.324       .  A
N456        C460   1.348       .  A
N457        C458   1.343       .  A
C458        C459   1.381       .  A
C458        H461   1.082       .  S
C459        C460   1.386       .  A
C460        H462   1.082       .  S
C463        C464   1.412       .  A
C463        C468   1.411       .  A
C463        C619   1.493       .  S
C464        C465   1.406       .  A
C464        H469   1.081       .  S
C465        C466   1.401       .  A
C466        C467   1.402       .  A
C466        H470   1.084       .  S
C467        C468   1.405       .  A
C467        C508   1.480       .  S
C468        H471   1.083       .  S
C472        C473   1.411       .  A
C472        C477   1.411       .  A
C472        C536   1.492       .  S
C473        C474   1.406       .  A
C473        H478   1.083       .  S
C474        C475   1.400       .  A
C475        C476   1.401       .  A
C475        H479   1.084       .  S
C476        C477   1.404       .  A
C476        C518   1.478       .  S
C477        H480   1.081       .  S
N481        N482   1.322       .  A
N481        C485   1.344       .  A
N481       Cu489   2.070       .  S
N482        C483   1.344       .  A
N482       Cu488   2.073   1_655  S
C483        C484   1.384       .  A
C483        H486   1.082       .  S
C484        C485   1.385       .  A
C485        H487   1.082       .  S
Cu488       N491   2.073       .  S
Cu489       N499   2.069   1_655  S
Cu490       N492   2.078       .  S
Cu490       N498   2.078       .  S
N491        N492   1.322       .  A
N491        C495   1.345       .  A
N492        C493   1.345       .  A
C493        C494   1.387       .  A
C493        H496   1.082       .  S
C494        C495   1.386       .  A
C495        H497   1.082       .  S
N498        N499   1.322       .  A
N498        C502   1.345       .  A
N499        C500   1.345   1_455  A
C500        C501   1.383   1_655  A
C500        H503   1.082       .  S
C501        C502   1.384       .  A
C501        C525   1.473       .  S
C502        H504   1.082       .  S
N505        N506   1.322       .  A
N505        C509   1.350       .  A
N505       Cu513   2.086       .  S
N506        C507   1.343       .  A
N506       Cu512   2.072   1_655  S
C507        C508   1.383       .  A
C507        H510   1.082       .  S
C508        C509   1.387       .  A
C509        H511   1.082       .  S
Cu512       N515   2.072       .  S
Cu513       N523   2.087   1_655  S
Cu514       N516   2.073       .  S
Cu514       N522   2.074       .  S
N515        N516   1.321       .  A
N515        C519   1.343       .  A
N516        C517   1.348       .  A
C517        C518   1.386       .  A
C517        H520   1.082       .  S
C518        C519   1.384       .  A
C519        H521   1.082       .  S
N522        N523   1.324       .  A
N522        C526   1.344       .  A
N523        C524   1.347   1_455  A
C524        C525   1.385   1_655  A
C524        H527   1.082       .  S
C525        C526   1.381       .  A
C526        H528   1.082       .  S
C529        C534   1.378       .  A
C529        C530   1.405       .  A
C529        O535   1.320       .  A
C530        C531   1.404       .  A
C530        H541   1.082       .  S
C531        C540   1.362       .  A
C531        C532   1.378       .  A
C532        C533   1.405       .  A
C532        O538   1.321       .  A
C533        C534   1.405       .  A
C533        H542   1.082       .  S
C534        C537   1.363       .  A
O535        C536   1.334       .  A
C536        C537   1.398       .  A
C537        H543   1.081       .  S
O538        C539   1.334       .  A
C539        C540   1.397       .  A
C540        H544   1.081       .  S
C545        C550   1.378       .  A
C545        C546   1.405       .  A
C545        O551   1.321       .  A
C546        C547   1.405       .  A
C546        H557   1.083       .  S
C547        C556   1.362       .  A
C547        C548   1.378       .  A
C548        C549   1.405       .  A
C548        O554   1.321       .  A
C549        C550   1.405       .  A
C549        H558   1.083       .  S
C550        C553   1.362       .  A
O551        C552   1.334       .  A
C552        C553   1.398       .  A
C553        H559   1.081       .  S
O554        C555   1.334       .  A
C555        C556   1.397       .  A
C556        H560   1.081       .  S
C561        C566   1.379       .  A
C561        C562   1.404       .  A
C561        O567   1.321       .  A
C562        C563   1.404       .  A
C562        H573   1.082       .  S
C563        C572   1.360       .  A
C563        C564   1.378       .  A
C564        C565   1.404       .  A
C564        O570   1.321       .  A
C565        C566   1.404       .  A
C565        H574   1.082       .  S
C566        C569   1.360       .  A
O567        C568   1.333       .  A
C568        C569   1.398       .  A
C569        H575   1.081       .  S
O570        C571   1.333       .  A
C571        C572   1.397       .  A
C572        H576   1.081       .  S
C577        C582   1.378       .  A
C577        C578   1.405       .  A
C577        O583   1.319       .  A
C578        C579   1.404       .  A
C578        H589   1.082       .  S
C579        C588   1.364       .  A
C579        C580   1.378       .  A
C580        C581   1.405       .  A
C580        O586   1.319       .  A
C581        C582   1.404       .  A
C581        H590   1.082       .  S
C582        C585   1.362       .  A
O583        C584   1.333       .  A
C584        C585   1.397       .  A
C585        H591   1.081       .  S
O586        C587   1.334       .  A
C587        C588   1.396       .  A
C588        H592   1.081       .  S
C593        C598   1.378       .  A
C593        C594   1.403       .  A
C593        O599   1.320       .  A
C594        C595   1.404       .  A
C594        H605   1.082       .  S
C595        C604   1.358       .  A
C595        C596   1.378       .  A
C596        C597   1.403       .  A
C596        O602   1.320       .  A
C597        C598   1.404       .  A
C597        H606   1.082       .  S
C598        C601   1.359       .  A
O599        C600   1.333       .  A
C600        C601   1.398       .  A
C601        H607   1.081       .  S
O602        C603   1.333       .  A
C603        C604   1.398       .  A
C604        H608   1.081       .  S
C609        C614   1.378       .  A
C609        C610   1.407       .  A
C609        O615   1.322       .  A
C610        C611   1.407       .  A
C610        H621   1.082       .  S
C611        C620   1.364       .  A
C611        C612   1.378       .  A
C612        C613   1.403       .  A
C612        O618   1.320       .  A
C613        C614   1.404       .  A
C613        H622   1.082       .  S
C614        C617   1.359       .  A
O615        C616   1.335       .  A
C616        C617   1.398       .  A
C617        H623   1.081       .  S
O618        C619   1.333       .  A
C619        C620   1.399       .  A
C620        H624   1.081       .  S
C625        C630   1.378       .  A
C625        C626   1.404       .  A
C625        O631   1.319       .  A
C626        C627   1.403       .  A
C626        H637   1.083       .  S
C627        C636   1.360       .  A
C627        C628   1.378       .  A
C628        C629   1.405       .  A
C628        O634   1.320       .  A
C629        C630   1.405       .  A
C629        H638   1.082       .  S
C630        C633   1.362       .  A
O631        C632   1.333       .  A
C632        C633   1.397       .  A
C633        H639   1.081       .  S
O634        C635   1.334       .  A
C635        C636   1.397       .  A
C636        H640   1.081       .  S
C641        C646   1.378       .  A
C641        C642   1.403       .  A
C641        O647   1.320       .  A
C642        C643   1.404       .  A
C642        H653   1.082       .  S
C643        C652   1.359       .  A
C643        C644   1.378       .  A
C644        C645   1.403       .  A
C644        O650   1.320       .  A
C645        C646   1.404       .  A
C645        H654   1.082       .  S
C646        C649   1.359       .  A
O647        C648   1.333       .  A
C648        C649   1.398       .  A
C649        H655   1.081       .  S
O650        C651   1.333       .  A
C651        C652   1.398       .  A
C652        H656   1.081       .  S
