geometry optimzed in LAMMPS
_audit_creation_date              2020-11-30 
_audit_creation_method            'lammps2cif' 
_symmetry_space_group_name_H-M    'P1' 
_symmetry_Int_Tables_number       1 
_symmetry_cell_setting            triclinic 
loop_ 
_symmetry_equiv_pos_as_xyz 
  x,y,z 
_cell_length_a                    39.37550083 
_cell_length_b                    23.69548160776982 
_cell_length_c                    35.096764178455615 
_cell_angle_alpha                 90.22760477863207 
_cell_angle_beta                  112.90912783828868 
_cell_angle_gamma                 90.16703786872836 
loop_ 
_atom_site_label 
_atom_site_type_symbol 
_atom_site_fract_x 
_atom_site_fract_y 
_atom_site_fract_z 
_atom_site_charge 
C1          C  0.44196989  0.15453863  0.38986259     0.04000
C2          C  0.40347349  0.14866285  0.37160914    -0.12200
C3          C  0.38264022  0.17844889  0.33545631     0.01500
C4          C  0.40081331  0.21713817  0.31875108    -0.11500
C5          C  0.43941645  0.22183734  0.33552840     0.04000
C6          C  0.45908312  0.18840369  0.36916528    -0.10100
H7          H  0.38963054  0.12224653  0.38631714     0.09600
H8          H  0.38498789  0.24430852  0.29330454     0.07100
H9          H  0.98771313  0.19026272  0.37703477     0.07000
O10         O  0.19320575  0.15368722  0.20436962    -0.77600
C11         C  0.20837189  0.10619448  0.33257719     0.83400
O12         O  0.17919882  0.32001495  0.26931465    -0.78700
O13         O  0.29222266  0.24939826  0.38630169    -0.80200
O14         O  0.32454678  0.19435334  0.28196572    -0.80000
O15         O  0.23823142  0.19488116  0.19190334    -0.78600
Zn16       Zn  0.20365777  0.18105007  0.26137856     1.55700
O17         O  0.32533696  0.16418599  0.34275104    -0.80000
Cd18       Cd  0.27353910  0.22779445  0.24977990     1.59700
Cd19       Cd  0.23747291  0.31000993  0.29438213     1.59600
O20         O  0.29312830  0.30626786  0.24206600    -0.80000
O21         O  0.24714895  0.22748633  0.28730700    -1.90500
Cd22       Cd  0.27388879  0.18831792  0.34107109     1.59900
O23         O  0.26526264  0.03287671  0.26898163    -0.80000
O24         O  0.23978130  0.12736391  0.35580286    -0.78600
C25         C  0.15530069  0.28008146  0.25650741     0.83900
C26         C  0.20852326  0.16570664  0.17967341     0.83500
O27         O  0.19335454  0.12074335  0.29498258    -0.77600
C28         C  0.34177758  0.17701966  0.31882167     0.84400
O29         O  0.16426892  0.22984745  0.25375648    -0.77700
C30         C  0.28816496  0.02281979  0.25211487     0.84500
C31         C  0.28722741  0.30222711  0.38803801     0.84800
O32         O  0.26451964  0.32959581  0.35734543    -0.80100
C33         C  0.05757761  0.31374768  0.18988973     0.04000
C34         C  0.09549897  0.32317878  0.21191684    -0.12200
C35         C  0.11557313  0.28730752  0.24436273     0.01500
C36         C  0.09713244  0.24450380  0.25691285    -0.10700
C37         C  0.05920719  0.23536230  0.23622450     0.04000
C38         C  0.04083224  0.26811590  0.20195276    -0.10100
H39         H  0.10999159  0.02024678  0.20066401     0.09600
H40         H  0.11293160  0.21665312  0.28195710     0.07100
H41         H  0.51388543  0.25378762  0.18500406     0.07000
C42         C  0.30863743  0.14008454  0.19091452     0.04000
C43         C  0.34700709  0.14454181  0.21049341    -0.12200
C44         C  0.36669173  0.11244716  0.24556094     0.01500
C45         C  0.34748367  0.07349526  0.26053550    -0.10700
C46         C  0.30881007  0.06951773  0.24212672     0.04000
C47         C  0.28998882  0.10426269  0.20875613    -0.10100
H48         H  0.36179029  0.17139726  0.19713724     0.09600
H49         H  0.36258575  0.04507992  0.28546536     0.07100
H50         H  0.26100533  0.09839801  0.19640368     0.07000
O51         O  0.05662288  0.16725681  0.28397329    -0.77600
C52         C  0.04124545  0.12660389  0.39686970     0.83400
O53         O  0.06870263  0.30340698  0.30614059    -0.78700
O54         O  0.45838319  0.31713077  0.33840244    -0.80200
O55         O  0.42308619  0.12342339  0.23675058    -0.80000
O56         O  0.50618944  0.17483254  0.22722850    -0.78600
Zn57       Zn  0.04545148  0.10658932  0.31515791     1.55700
O58         O  0.42503636  0.09509084  0.29855319    -0.80000
Cd59       Cd  0.47448429  0.10604775  0.23631286     1.59700
Cd60       Cd  0.00853072  0.31437181  0.27796429     1.59600
O61         O  0.45995708  0.05385049  0.18440508    -0.80000
O62         O  0.00103444  0.06281480  0.28895500    -1.90500
Cd63       Cd  0.47669965  0.06250178  0.32950448     1.59900
O64         O  0.47913360  0.30291892  0.21223383    -0.80000
O65         O  0.01166454  0.09741014  0.38776355    -0.78600
C66         C  0.09360399  0.00878059  0.32093213     0.83900
C67         C  0.03936950  0.19024155  0.24950248     0.83500
O68         O  0.05525641  0.13524146  0.37060383    -0.77600
C69         C  0.40737547  0.11188847  0.26161186     0.84400
O70         O  0.08511294  0.05900239  0.32401338    -0.77700
C71         C  0.46257357  0.00074655  0.18048920     0.84500
C72         C  0.45956033  0.26819805  0.32406754     0.84800
O73         O  0.47872873  0.25868252  0.30236924    -0.80100
C74         C  0.18900390  0.32686741  0.39908822     0.04000
C75         C  0.15388857  0.30651001  0.37254505    -0.12200
C76         C  0.13413292  0.00155779  0.33547995     0.01500
C77         C  0.15292019  0.04342469  0.32218199    -0.10700
C78         C  0.18829240  0.06321482  0.34790983     0.04000
C79         C  0.20257506  0.04306708  0.38838338    -0.10100
H80         H  0.14042816  0.27363482  0.38300982     0.09600
H81         H  0.13825898  0.06431055  0.29294410     0.07100
H82         H  0.22234482  0.06734709  0.41227383     0.07000
C83         C  0.44315101  0.30817864  0.13813064     0.04000
C84         C  0.46063550  0.27371385  0.11783883    -0.12200
C85         C  0.44127634  0.24087942  0.08341390     0.01500
C86         C  0.40288361  0.24614958  0.06593752    -0.10700
C87         C  0.38470654  0.28573194  0.08189497     0.04000
C88         C  0.40495730  0.31591736  0.11815575    -0.10100
H89         H  0.98932502  0.27050660  0.12644921     0.09600
H90         H  0.38690928  0.21822591  0.04072444     0.07100
H91         H  0.39053221  0.00800350  0.13279279     0.07000
O92         O  0.30578551  0.15309425  0.12314361    -0.77600
C93         C  0.29033158  0.10880053  0.99511083     0.83400
O94         O  0.32113664  0.31814181  0.05533193    -0.78700
O95         O  0.20485554  0.24643257  0.44186106    -0.80200
O96         O  0.17580847  0.19891899  0.04658977    -0.80000
O97         O  0.26193986  0.19457619  0.13736171    -0.78600
Zn98       Zn  0.29572494  0.18190487  0.06699899     1.55700
O99         O  0.17558400  0.15994733  0.48825348    -0.80000
Cd100      Cd  0.22734067  0.23028431  0.08003366     1.59700
Cd101      Cd  0.26228568  0.31011871  0.03213190     1.59600
O102        O  0.20900604  0.30954717  0.08849378    -0.80000
O103        O  0.25271952  0.22865703  0.04145043    -1.90500
Cd104      Cd  0.22525712  0.18804815  0.48810485     1.59900
O105        O  0.23426447  0.03412078  0.05718419    -0.80000
O106        O  0.25898834  0.12947976  0.47215694    -0.78600
C107        C  0.34498784  0.27859066  0.06975729     0.83900
C108        C  0.29095984  0.16423441  0.14844733     0.83500
O109        O  0.30521902  0.12225236  0.03297378    -0.77600
C110        C  0.15888584  0.17713005  0.01089162     0.84400
O111        O  0.33607169  0.22903356  0.07456915    -0.77700
C112        C  0.21262021  0.02527930  0.07599281     0.84500
C113        C  0.21057978  0.29870564  0.43882621     0.84800
O114        O  0.23429150  0.32678849  0.46870446    -0.80100
C115        C  0.06000533  0.15372464  0.43770689     0.04000
C116        C  0.04300061  0.19684482  0.45137320    -0.12200
C117        C  0.06148662  0.22824181  0.48668392     0.01500
C118        C  0.09965720  0.21958270  0.00756196    -0.10700
C119        C  0.11814070  0.17827030  0.99354830     0.04000
C120        C  0.09788370  0.14506986  0.45897282    -0.10100
H121        H  0.51551152  0.20918116  0.43516831     0.09600
H122        H  0.11506145  0.24597791  0.03397547     0.07100
H123        H  0.11189366  0.11451538  0.44721893     0.07000
C124        C  0.30911687  0.33219835  0.42703617     0.04000
C125        C  0.34504832  0.31477134  0.45204622    -0.12200
C126        C  0.36535572  0.34422388  0.98881926     0.01500
C127        C  0.34688600  0.05126641  0.00345884    -0.10700
C128        C  0.31062241  0.06814577  0.97888743     0.04000
C129        C  0.29512177  0.04701889  0.43860678    -0.10100
H130        H  0.35810674  0.28165119  0.44127714     0.09600
H131        H  0.36153421  0.07220310  0.03284527     0.07100
H132        H  0.27363196  0.06920295  0.41568556     0.07000
C133        C  0.19126408  0.14333629  0.13658593     0.04000
C134        C  0.21006144  0.10576850  0.12011656    -0.12200
C135        C  0.19191561  0.07268843  0.08540599     0.01500
C136        C  0.15342642  0.07821549  0.06564479    -0.10700
C137        C  0.13398962  0.11878160  0.07939759     0.04000
C138        C  0.15322703  0.15076647  0.11492574    -0.10100
H139        H  0.23857891  0.09719301  0.13466000     0.09600
H140        H  0.13829983  0.04954527  0.04057732     0.07100
H141        H  0.13802208  0.17720753  0.12802242     0.07000
O142        O  0.05471856  0.32974246  0.12325256    -0.77600
C143        C  0.04080386  0.27073254  0.00077442     0.83400
O144        O  0.06977187  0.15093310  0.05216787    -0.78700
O145        O  0.45894644  0.07423566  0.43422901    -0.80200
O146        O  0.42307625  0.03018247  0.04334124    -0.80000
O147        O  0.00928565  0.03358167  0.13720353    -0.78600
Zn148      Zn  0.04449512  0.01844160  0.06640791     1.55700
O149        O  0.42326619  0.99642542  0.48356288    -0.80000
Cd150      Cd  0.47457541  0.06452137  0.07704964     1.59700
Cd151      Cd  0.01002197  0.14407143  0.02771093     1.59600
O152        O  0.45625314  0.14422121  0.08377033    -0.80000
O153        O  0.00066912  0.06308860  0.03847880    -1.90500
Cd154      Cd  0.47477280  0.02038674  0.48511500     1.59900
O155        O  0.48273219  0.20213209  0.05365778    -0.80000
O156        O  0.50941480  0.28994253  0.47630024    -0.78600
C157        C  0.09392774  0.11159768  0.06642864     0.83900
C158        C  0.03964157  0.00613862  0.14840241     0.83500
O159        O  0.05544140  0.28788159  0.03767676    -0.77600
C160        C  0.40635425  0.00994715  0.00689277     0.84400
O161        O  0.08511506  0.06241333  0.07174298    -0.77700
C162        C  0.46089290  0.19344199  0.07232690     0.84500
C163        C  0.46249330  0.12728717  0.43105425     0.84800
O164        O  0.48081619  0.15762659  0.46286368    -0.80100
C165        C  0.44197916  0.15452838  0.88985727     0.04000
C166        C  0.40348316  0.14865295  0.87160076    -0.12200
C167        C  0.38265206  0.17843835  0.83544691     0.01500
C168        C  0.40082719  0.21712364  0.81874134    -0.11500
C169        C  0.43943030  0.22182111  0.83552094     0.04000
C170        C  0.45909453  0.18839116  0.86916084    -0.10100
H171        H  0.38963845  0.12223907  0.88630847     0.09600
H172        H  0.38500339  0.24429299  0.79329347     0.07100
H173        H  0.98772619  0.19025415  0.87703518     0.07000
O174        O  0.19322307  0.15367576  0.70436750    -0.77600
C175        C  0.20838489  0.10619018  0.83257517     0.83400
O176        O  0.17920881  0.32000479  0.76930716    -0.78700
O177        O  0.29222905  0.24939880  0.88629248    -0.80200
O178        O  0.32455879  0.19435065  0.78195782    -0.80000
O179        O  0.23823858  0.19489423  0.69189583    -0.78600
Zn180      Zn  0.20367386  0.18104123  0.76137477     1.55700
O181        O  0.32534946  0.16418480  0.84274389    -0.80000
Cd182      Cd  0.27355212  0.22779771  0.74977421     1.59700
Cd183      Cd  0.23748209  0.31000662  0.79437204     1.59600
O184        O  0.29314358  0.30627230  0.74206626    -0.80000
O185        O  0.24716221  0.22748303  0.78730106    -1.90500
Cd186      Cd  0.27390130  0.18831462  0.84106523     1.59900
O187        O  0.26526612  0.03287923  0.76896844    -0.80000
O188        O  0.23979489  0.12736015  0.85580187    -0.78600
C189        C  0.15531256  0.28006895  0.75650093     0.83900
C190        C  0.20853461  0.16570930  0.67966819     0.83500
O191        O  0.19337004  0.12073725  0.79498062    -0.77600
C192        C  0.34178957  0.17701530  0.81881338     0.84400
O193        O  0.16428278  0.22983590  0.75375029    -0.77700
C194        C  0.28817384  0.02282431  0.75210868     0.84500
C195        C  0.28723207  0.30222593  0.88802968     0.84800
O196        O  0.26452540  0.32959573  0.85733550    -0.80100
C197        C  0.05758760  0.31374175  0.68989127     0.04000
C198        C  0.09550971  0.32316952  0.71191633    -0.12200
C199        C  0.11558510  0.28729233  0.74435749     0.01500
C200        C  0.09714557  0.24448628  0.75690689    -0.10700
C201        C  0.05921953  0.23534888  0.73622132     0.04000
C202        C  0.04084325  0.26810771  0.70195306    -0.10100
H203        H  0.11000197  0.02023996  0.70066457     0.09600
H204        H  0.11294534  0.21663273  0.78194832     0.07100
H205        H  0.51389717  0.25378117  0.68500622     0.07000
C206        C  0.30864946  0.14009529  0.69091516     0.04000
C207        C  0.34701942  0.14454856  0.71049448    -0.12200
C208        C  0.36670303  0.11244807  0.74555931     0.01500
C209        C  0.34749320  0.07349600  0.76053108    -0.10700
C210        C  0.30881954  0.06952363  0.74212314     0.04000
C211        C  0.28999942  0.10427299  0.70875479    -0.10100
H212        H  0.36180397  0.17140459  0.69713954     0.09600
H213        H  0.36259415  0.04507670  0.78545870     0.07100
H214        H  0.26101625  0.09840943  0.69640081     0.07000
O215        O  0.05663509  0.16724554  0.78397149    -0.77600
C216        C  0.04125250  0.12659735  0.89686874     0.83400
O217        O  0.06871545  0.30340031  0.80613133    -0.78700
O218        O  0.45839774  0.31711372  0.83839858    -0.80200
O219        O  0.42309892  0.12342909  0.73675252    -0.80000
O220        O  0.50620139  0.17482249  0.72722723    -0.78600
Zn221      Zn  0.04546378  0.10657944  0.81515784     1.55700
O222        O  0.42504639  0.09507220  0.79854853    -0.80000
Cd223      Cd  0.47449497  0.10604277  0.73631383     1.59700
Cd224      Cd  0.00854375  0.31436372  0.77795996     1.59600
O225        O  0.45996251  0.05384784  0.68440520    -0.80000
O226        O  0.00104648  0.06280535  0.78895405    -1.90500
Cd227      Cd  0.47671096  0.06248725  0.82950236     1.59900
O228        O  0.47914394  0.30291631  0.71223027    -0.80000
O229        O  0.01167272  0.09740016  0.88776167    -0.78600
C230        C  0.09361666  0.00877319  0.82092453     0.83900
C231        C  0.03938191  0.19022977  0.74950046     0.83500
O232        O  0.05526556  0.13523374  0.87060428    -0.77600
C233        C  0.40738683  0.11188356  0.76161057     0.84400
O234        O  0.08512616  0.05899387  0.82401082    -0.77700
C235        C  0.46258066  0.00074483  0.68048744     0.84500
C236        C  0.45957538  0.26818215  0.82406239     0.84800
O237        O  0.47874392  0.25866890  0.80236393    -0.80100
C238        C  0.18900947  0.32687053  0.89908778     0.04000
C239        C  0.15389756  0.30650483  0.87253832    -0.12200
C240        C  0.13414522  0.00154953  0.83547176     0.01500
C241        C  0.15293296  0.04341673  0.82217540    -0.10700
C242        C  0.18830381  0.06321297  0.84790831     0.04000
C243        C  0.20257586  0.04306694  0.88837962    -0.10100
H244        H  0.14043698  0.27362813  0.88300103     0.09600
H245        H  0.13827409  0.06429997  0.79293579     0.07100
H246        H  0.22235649  0.06736662  0.91228650     0.07000
C247        C  0.44315798  0.30817919  0.63812873     0.04000
C248        C  0.46064376  0.27371502  0.61783825    -0.12200
C249        C  0.44128522  0.24088157  0.58341243     0.01500
C250        C  0.40289244  0.24615253  0.56593436    -0.10700
C251        C  0.38471441  0.28573528  0.58189064     0.04000
C252        C  0.40496448  0.31591952  0.61815256    -0.10100
H253        H  0.98933333  0.27050669  0.62645100     0.09600
H254        H  0.38691861  0.21822899  0.54072075     0.07100
H255        H  0.39053926  0.00800521  0.63278901     0.07000
O256        O  0.30579946  0.15310749  0.62314517    -0.77600
C257        C  0.29033616  0.10880952  0.49511110     0.83400
O258        O  0.32114334  0.31814460  0.55532556    -0.78700
O259        O  0.20485858  0.24643672  0.94186190    -0.80200
O260        O  0.17580956  0.19892512  0.54658715    -0.80000
O261        O  0.26194911  0.19457937  0.63735951    -0.78600
Zn262      Zn  0.29573263  0.18191281  0.56699843     1.55700
O263        O  0.17558405  0.15994945  0.98825369    -0.80000
Cd264      Cd  0.22734587  0.23028390  0.58003180     1.59700
Cd265      Cd  0.26229190  0.31011658  0.53212669     1.59600
O266        O  0.20901763  0.30954776  0.58849590    -0.80000
O267        O  0.25272409  0.22865768  0.54144843    -1.90500
Cd268      Cd  0.22525618  0.18804991  0.98810506     1.59900
O269        O  0.23427144  0.03411795  0.55717871    -0.80000
O270        O  0.25898478  0.12947611  0.97215540    -0.78600
C271        C  0.34499519  0.27859449  0.56975146     0.83900
C272        C  0.29097213  0.16424453  0.64844767     0.83500
O273        O  0.30522526  0.12226184  0.53297448    -0.77600
C274        C  0.15888567  0.17713318  0.51088999     0.84400
O275        O  0.33607910  0.22903832  0.57456447    -0.77700
C276        C  0.21263035  0.02527824  0.57599142     0.84500
C277        C  0.21058089  0.29870995  0.93882776     0.84800
O278        O  0.23428858  0.32679525  0.96870912    -0.80100
C279        C  0.06000896  0.15372136  0.93770597     0.04000
C280        C  0.04300356  0.19684076  0.95137309    -0.12200
C281        C  0.06148748  0.22823712  0.98668488     0.01500
C282        C  0.09965648  0.21958798  0.50755974    -0.10700
C283        C  0.11813966  0.17827475  0.49354645     0.04000
C284        C  0.09788686  0.14506647  0.95897377    -0.10100
H285        H  0.51551395  0.20917792  0.93516812     0.09600
H286        H  0.11506155  0.24598476  0.53397242     0.07100
H287        H  0.11189761  0.11451296  0.94722084     0.07000
C288        C  0.30911604  0.33219623  0.92702960     0.04000
C289        C  0.34504912  0.31477114  0.95204066    -0.12200
C290        C  0.36535931  0.34422972  0.48882255     0.01500
C291        C  0.34689105  0.05127886  0.50346019    -0.10700
C292        C  0.31062920  0.06815704  0.47888975     0.04000
C293        C  0.29512171  0.04700322  0.93860907    -0.10100
H294        H  0.35811039  0.28165751  0.94126915     0.09600
H295        H  0.36154053  0.07221725  0.53284567     0.07100
H296        H  0.27360750  0.06919925  0.91567063     0.07000
C297        C  0.19127479  0.14333951  0.63658067     0.04000
C298        C  0.21007271  0.10577155  0.62011202    -0.12200
C299        C  0.19192612  0.07268757  0.58540370     0.01500
C300        C  0.15343660  0.07821024  0.56564441    -0.10700
C301        C  0.13399905  0.11877554  0.57939648     0.04000
C302        C  0.15323676  0.15076441  0.61492263    -0.10100
H303        H  0.23859020  0.09719785  0.63465517     0.09600
H304        H  0.13831035  0.04953720  0.54057847     0.07100
H305        H  0.13803159  0.17720454  0.62801956     0.07000
O306        O  0.05472503  0.32973861  0.62325335    -0.77600
C307        C  0.04080347  0.27073657  0.50077321     0.83400
O308        O  0.06978062  0.15092476  0.55216460    -0.78700
O309        O  0.45895149  0.07423011  0.93422848    -0.80200
O310        O  0.42308201  0.03018596  0.54334381    -0.80000
O311        O  0.00929560  0.03358227  0.63720794    -0.78600
Zn312      Zn  0.04450058  0.01844098  0.56640955     1.55700
O313        O  0.42326341  0.99642409  0.98356084    -0.80000
Cd314      Cd  0.47458315  0.06452190  0.57705292     1.59700
Cd315      Cd  0.01002989  0.14406927  0.52771202     1.59600
O316        O  0.45626078  0.14422292  0.58376990    -0.80000
O317        O  0.00067475  0.06308879  0.53848070    -1.90500
Cd318      Cd  0.47477139  0.02038241  0.98511486     1.59900
O319        O  0.48274451  0.20213248  0.55366164    -0.80000
O320        O  0.50941381  0.28993556  0.97630206    -0.78600
C321        C  0.09393698  0.11159034  0.56642816     0.83900
C322        C  0.03965044  0.00613610  0.64840497     0.83500
O323        O  0.05544057  0.28788132  0.53767658    -0.77600
C324        C  0.40635807  0.00995086  0.50689536     0.84400
O325        O  0.08512449  0.06240680  0.57174527    -0.77700
C326        C  0.46090258  0.19344340  0.57232757     0.84500
C327        C  0.46249851  0.12728131  0.93105175     0.84800
O328        O  0.48081622  0.15762421  0.96286122    -0.80100
C329        C  0.44196985  0.48787194  0.38986268     0.04000
C330        C  0.40347349  0.48199623  0.37160908    -0.12200
C331        C  0.38264016  0.51178220  0.33545628     0.01500
C332        C  0.40081330  0.55047158  0.31875118    -0.11500
C333        C  0.43941644  0.55517087  0.33552870     0.04000
C334        C  0.45908311  0.52173715  0.36916549    -0.10100
H335        H  0.38963040  0.45557975  0.38631719     0.09600
H336        H  0.38498785  0.57764212  0.29330462     0.07100
H337        H  0.98771365  0.52359651  0.37703477     0.07000
O338        O  0.19320585  0.48702029  0.20436978    -0.77600
C339        C  0.20837193  0.43952771  0.33257720     0.83400
O340        O  0.17919894  0.65334846  0.26931480    -0.78700
O341        O  0.29222262  0.58273168  0.38630169    -0.80200
O342        O  0.32454670  0.52768659  0.28196575    -0.80000
O343        O  0.23823141  0.52821436  0.19190338    -0.78600
Zn344      Zn  0.20365777  0.51438338  0.26137864     1.55700
O345        O  0.32533682  0.49751904  0.34275099    -0.80000
Cd346      Cd  0.27353909  0.56112779  0.24977996     1.59700
Cd347      Cd  0.23747292  0.64334330  0.29438215     1.59600
O348        O  0.29312840  0.63960118  0.24206604    -0.80000
O349        O  0.24714879  0.56081964  0.28730693    -1.90500
Cd350      Cd  0.27388877  0.52165124  0.34107113     1.59900
O351        O  0.26526278  0.36620987  0.26898190    -0.80000
O352        O  0.23978130  0.46069721  0.35580295    -0.78600
C353        C  0.15530079  0.61341503  0.25650762     0.83900
C354        C  0.20852320  0.49903981  0.17967351     0.83500
O355        O  0.19335456  0.45407674  0.29498263    -0.77600
C356        C  0.34177749  0.51035296  0.31882168     0.84400
O357        O  0.16426896  0.56318103  0.25375658    -0.77700
C358        C  0.28816494  0.35615305  0.25211489     0.84500
C359        C  0.28722735  0.63556053  0.38803802     0.84800
O360        O  0.26451961  0.66292912  0.35734542    -0.80100
C361        C  0.05757770  0.64708085  0.18988970     0.04000
C362        C  0.09549911  0.65651217  0.21191681    -0.12200
C363        C  0.11557322  0.62064109  0.24436281     0.01500
C364        C  0.09713257  0.57783742  0.25691292    -0.10700
C365        C  0.05920730  0.56869573  0.23622463     0.04000
C366        C  0.04083250  0.60144919  0.20195292    -0.10100
H367        H  0.10999166  0.35358010  0.20066423     0.09600
H368        H  0.11293177  0.54998723  0.28195755     0.07100
H369        H  0.51388612  0.58712088  0.18500469     0.07000
C370        C  0.30863736  0.47341787  0.19091454     0.04000
C371        C  0.34700708  0.47787513  0.21049341    -0.12200
C372        C  0.36669169  0.44578050  0.24556100     0.01500
C373        C  0.34748371  0.40682857  0.26053561    -0.10700
C374        C  0.30881005  0.40285110  0.24212685     0.04000
C375        C  0.28998903  0.43759591  0.20875625    -0.10100
H376        H  0.36179020  0.50473059  0.19713724     0.09600
H377        H  0.36258586  0.37841319  0.28546541     0.07100
H378        H  0.26100480  0.43173126  0.19640347     0.07000
O379        O  0.05662297  0.50058997  0.28397336    -0.77600
C380        C  0.04124564  0.45993714  0.39686968     0.83400
O381        O  0.06870286  0.63674044  0.30614063    -0.78700
O382        O  0.45838310  0.65046410  0.33840259    -0.80200
O383        O  0.42308610  0.45675687  0.23675061    -0.80000
O384        O  0.50618939  0.50816627  0.22722846    -0.78600
Zn385      Zn  0.04545151  0.43992246  0.31515795     1.55700
O386        O  0.42503633  0.42842429  0.29855326    -0.80000
Cd387      Cd  0.47448425  0.43938141  0.23631284     1.59700
Cd388      Cd  0.00853090  0.64770520  0.27796436     1.59600
O389        O  0.45995719  0.38718403  0.18440513    -0.80000
O390        O  0.00103438  0.39614807  0.28895511    -1.90500
Cd391      Cd  0.47669964  0.39583532  0.32950453     1.59900
O392        O  0.47913354  0.63625220  0.21223397    -0.80000
O393        O  0.01166469  0.43074350  0.38776357    -0.78600
C394        C  0.09360397  0.34211376  0.32093203     0.83900
C395        C  0.03936966  0.52357493  0.24950264     0.83500
O396        O  0.05525661  0.46857454  0.37060379    -0.77600
C397        C  0.40737541  0.44522172  0.26161187     0.84400
O398        O  0.08511286  0.39233547  0.32401329    -0.77700
C399        C  0.46257370  0.33408015  0.18048922     0.84500
C400        C  0.45956039  0.60153140  0.32406787     0.84800
O401        O  0.47872866  0.59201599  0.30236941    -0.80100
C402        C  0.18900402  0.66020088  0.39908831     0.04000
C403        C  0.15388870  0.63984373  0.37254512    -0.12200
C404        C  0.13413292  0.33489103  0.33547992     0.01500
C405        C  0.15292019  0.37675799  0.32218196    -0.10700
C406        C  0.18829243  0.39654813  0.34790988     0.04000
C407        C  0.20257495  0.37640041  0.38838341    -0.10100
H408        H  0.14042790  0.60696874  0.38300981     0.09600
H409        H  0.13825907  0.39764382  0.29294414     0.07100
H410        H  0.22234504  0.40068053  0.41227408     0.07000
C411        C  0.44315105  0.64151189  0.13813073     0.04000
C412        C  0.46063580  0.60704715  0.11783898    -0.12200
C413        C  0.44127642  0.57421262  0.08341403     0.01500
C414        C  0.40288375  0.57948287  0.06593754    -0.10700
C415        C  0.38470661  0.61906516  0.08189499     0.04000
C416        C  0.40495742  0.64925053  0.11815572    -0.10100
H417        H  0.98932547  0.60383998  0.12644935     0.09600
H418        H  0.38690948  0.55155928  0.04072445     0.07100
H419        H  0.39053256  0.34133753  0.13279273     0.07000
O420        O  0.30578547  0.48642759  0.12314362    -0.77600
C421        C  0.29033149  0.44213373  0.99511091     0.83400
O422        O  0.32113665  0.65147506  0.05533206    -0.78700
O423        O  0.20485571  0.57976601  0.44186108    -0.80200
O424        O  0.17580845  0.53225227  0.04658987    -0.80000
O425        O  0.26193977  0.52790922  0.13736169    -0.78600
Zn426      Zn  0.29572491  0.51523820  0.06699900     1.55700
O427        O  0.17558411  0.49328079  0.48825341    -0.80000
Cd428      Cd  0.22734063  0.56361762  0.08003372     1.59700
Cd429      Cd  0.26228565  0.64345202  0.03213193     1.59600
O430        O  0.20900608  0.64288049  0.08849396    -0.80000
O431        O  0.25271947  0.56199035  0.04145044    -1.90500
Cd432      Cd  0.22525721  0.52138146  0.48810483     1.59900
O433        O  0.23426449  0.36745397  0.05718424    -0.80000
O434        O  0.25898838  0.46281283  0.47215712    -0.78600
C435        C  0.34498787  0.61192385  0.06975728     0.83900
C436        C  0.29095978  0.49756755  0.14844733     0.83500
O437        O  0.30521897  0.45558559  0.03297383    -0.77600
C438        C  0.15888574  0.51046353  0.01089171     0.84400
O439        O  0.33607170  0.56236675  0.07456908    -0.77700
C440        C  0.21262014  0.35861247  0.07599277     0.84500
C441        C  0.21057990  0.63203913  0.43882629     0.84800
O442        O  0.23429165  0.66012203  0.46870454    -0.80100
C443        C  0.06000547  0.48705758  0.43770698     0.04000
C444        C  0.04300105  0.53017792  0.45137331    -0.12200
C445        C  0.06148665  0.56157501  0.48668388     0.01500
C446        C  0.09965690  0.55291617  0.00756192    -0.10700
C447        C  0.11814058  0.51160377  0.99354839     0.04000
C448        C  0.09788391  0.47840269  0.45897295    -0.10100
H449        H  0.51551176  0.54251454  0.43516884     0.09600
H450        H  0.11506107  0.57931146  0.03397521     0.07100
H451        H  0.11189367  0.44784767  0.44721951     0.07000
C452        C  0.30911685  0.66553181  0.42703618     0.04000
C453        C  0.34504829  0.64810494  0.45204627    -0.12200
C454        C  0.36535570  0.67755730  0.98881923     0.01500
C455        C  0.34688604  0.38459977  0.00345925    -0.10700
C456        C  0.31062241  0.40147892  0.97888763     0.04000
C457        C  0.29512177  0.38035151  0.43860690    -0.10100
H458        H  0.35810704  0.61498513  0.44127702     0.09600
H459        H  0.36153439  0.40553698  0.03284514     0.07100
H460        H  0.27363195  0.40253608  0.41568561     0.07000
C461        C  0.19126401  0.47666950  0.13658613     0.04000
C462        C  0.21006107  0.43910177  0.12011662    -0.12200
C463        C  0.19191562  0.40602161  0.08540620     0.01500
C464        C  0.15342637  0.41154890  0.06564493    -0.10700
C465        C  0.13398962  0.45211494  0.07939782     0.04000
C466        C  0.15322676  0.48410006  0.11492602    -0.10100
H467        H  0.23857949  0.43052549  0.13466108     0.09600
H468        H  0.13829995  0.38287931  0.04057697     0.07100
H469        H  0.13802214  0.51054082  0.12802244     0.07000
O470        O  0.05471858  0.66307582  0.12325255    -0.77600
C471        C  0.04080371  0.60406601  0.00077421     0.83400
O472        O  0.06977195  0.48426625  0.05216790    -0.78700
O473        O  0.45894625  0.40756890  0.43422915    -0.80200
O474        O  0.42307620  0.36351550  0.04334136    -0.80000
O475        O  0.00928573  0.36691493  0.13720332    -0.78600
Zn476      Zn  0.04449528  0.35177470  0.06640795     1.55700
O477        O  0.42326617  0.32975825  0.48356311    -0.80000
Cd478      Cd  0.47457540  0.39785441  0.07704979     1.59700
Cd479      Cd  0.01002214  0.47740470  0.02771097     1.59600
O480        O  0.45625326  0.47755443  0.08377047    -0.80000
O481        O  0.00066923  0.39642183  0.03847881    -1.90500
Cd482      Cd  0.47477268  0.35371976  0.48511500     1.59900
O483        O  0.48273223  0.53546534  0.05365782    -0.80000
O484        O  0.50941488  0.62327580  0.47630054    -0.78600
C485        C  0.09392781  0.44493091  0.06642891     0.83900
C486        C  0.03964161  0.33947176  0.14840233     0.83500
O487        O  0.05544137  0.62121518  0.03767664    -0.77600
C488        C  0.40635418  0.34328035  0.00689293     0.84400
O489        O  0.08511527  0.39574637  0.07174321    -0.77700
C490        C  0.46089293  0.52677521  0.07232693     0.84500
C491        C  0.46249323  0.46062036  0.43105433     0.84800
O492        O  0.48081614  0.49095959  0.46286380    -0.80100
C493        C  0.44197919  0.48786168  0.88985734     0.04000
C494        C  0.40348323  0.48198619  0.87160073    -0.12200
C495        C  0.38265203  0.51177160  0.83544702     0.01500
C496        C  0.40082725  0.55045680  0.81874164    -0.11500
C497        C  0.43943030  0.55515441  0.83552109     0.04000
C498        C  0.45909451  0.52172452  0.86916094    -0.10100
H499        H  0.38963838  0.45557234  0.88630867     0.09600
H500        H  0.38500325  0.57762686  0.79329378     0.07100
H501        H  0.98772432  0.52358669  0.87703305     0.07000
O502        O  0.19322318  0.48700896  0.70436780    -0.77600
C503        C  0.20838492  0.43952359  0.83257538     0.83400
O504        O  0.17920881  0.65333818  0.76930728    -0.78700
O505        O  0.29222903  0.58273206  0.88629250    -0.80200
O506        O  0.32455873  0.52768381  0.78195788    -0.80000
O507        O  0.23823858  0.52822752  0.69189594    -0.78600
Zn508      Zn  0.20367397  0.51437453  0.76137497     1.55700
O509        O  0.32534945  0.49751808  0.84274409    -0.80000
Cd510      Cd  0.27355211  0.56113105  0.74977427     1.59700
Cd511      Cd  0.23748210  0.64334000  0.79437211     1.59600
O512        O  0.29314374  0.63960556  0.74206639    -0.80000
O513        O  0.24716228  0.56081643  0.78730118    -1.90500
Cd514      Cd  0.27390125  0.52164795  0.84106529     1.59900
O515        O  0.26526621  0.36621270  0.76896851    -0.80000
O516        O  0.23979491  0.46069354  0.85580205    -0.78600
C517        C  0.15531261  0.61340242  0.75650100     0.83900
C518        C  0.20853459  0.49904251  0.67966839     0.83500
O519        O  0.19337015  0.45407055  0.79498087    -0.77600
C520        C  0.34178954  0.51034850  0.81881350     0.84400
O521        O  0.16428301  0.56316938  0.75375055    -0.77700
C522        C  0.28817381  0.35615776  0.75210857     0.84500
C523        C  0.28723202  0.63555919  0.88802974     0.84800
O524        O  0.26452537  0.66292901  0.85733558    -0.80100
C525        C  0.05758777  0.64707525  0.68989120     0.04000
C526        C  0.09550995  0.65650309  0.71191616    -0.12200
C527        C  0.11558515  0.62062585  0.74435751     0.01500
C528        C  0.09714540  0.57781999  0.75690663    -0.10700
C529        C  0.05921952  0.56868238  0.73622126     0.04000
C530        C  0.04084349  0.60144130  0.70195300    -0.10100
H531        H  0.11000169  0.35357381  0.70066459     0.09600
H532        H  0.11294525  0.54996592  0.78194842     0.07100
H533        H  0.51389649  0.58711504  0.68500567     0.07000
C534        C  0.30864963  0.47342877  0.69091516     0.04000
C535        C  0.34701973  0.47788207  0.71049445    -0.12200
C536        C  0.36670315  0.44578149  0.74555934     0.01500
C537        C  0.34749339  0.40682942  0.76053122    -0.10700
C538        C  0.30881962  0.40285701  0.74212310     0.04000
C539        C  0.28999996  0.43760661  0.70875500    -0.10100
H540        H  0.36180416  0.50473770  0.69713955     0.09600
H541        H  0.36259424  0.37841015  0.78545881     0.07100
H542        H  0.26101556  0.43174314  0.69640011     0.07000
O543        O  0.05663514  0.50057885  0.78397157    -0.77600
C544        C  0.04125247  0.45993024  0.89686884     0.83400
O545        O  0.06871539  0.63673369  0.80613123    -0.78700
O546        O  0.45839770  0.65044693  0.83839860    -0.80200
O547        O  0.42309896  0.45676248  0.73675250    -0.80000
O548        O  0.50620137  0.50815618  0.72722736    -0.78600
Zn549      Zn  0.04546377  0.43991255  0.81515784     1.55700
O550        O  0.42504644  0.42840575  0.79854860    -0.80000
Cd551      Cd  0.47449495  0.43937647  0.73631383     1.59700
Cd552      Cd  0.00854378  0.64769715  0.77795995     1.59600
O553        O  0.45996246  0.38718170  0.68440520    -0.80000
O554        O  0.00104656  0.39613864  0.78895403    -1.90500
Cd555      Cd  0.47671106  0.39582091  0.82950238     1.59900
O556        O  0.47914384  0.63624961  0.71223030    -0.80000
O557        O  0.01167280  0.43073289  0.88776178    -0.78600
C558        C  0.09361666  0.34210648  0.82092460     0.83900
C559        C  0.03938193  0.52356313  0.74950044     0.83500
O560        O  0.05526559  0.46856660  0.87060440    -0.77600
C561        C  0.40738692  0.44521704  0.76161059     0.84400
O562        O  0.08512607  0.39232705  0.82401080    -0.77700
C563        C  0.46258070  0.33407869  0.68048751     0.84500
C564        C  0.45957528  0.60151538  0.82406238     0.84800
O565        O  0.47874388  0.59200214  0.80236397    -0.80100
C566        C  0.18900949  0.66020363  0.89908781     0.04000
C567        C  0.15389749  0.63983786  0.87253837    -0.12200
C568        C  0.13414519  0.33488287  0.83547177     0.01500
C569        C  0.15293281  0.37675038  0.82217519    -0.10700
C570        C  0.18830373  0.39654645  0.84790846     0.04000
C571        C  0.20257592  0.37640087  0.88838003    -0.10100
H572        H  0.14043693  0.60696115  0.88300099     0.09600
H573        H  0.13827428  0.39763311  0.79293616     0.07100
H574        H  0.22235590  0.40069959  0.91228618     0.07000
C575        C  0.44315811  0.64151233  0.63812872     0.04000
C576        C  0.46064389  0.60704806  0.61783832    -0.12200
C577        C  0.44128545  0.57421468  0.58341253     0.01500
C578        C  0.40289262  0.57948534  0.56593424    -0.10700
C579        C  0.38471450  0.61906832  0.58189042     0.04000
C580        C  0.40496469  0.64925226  0.61815231    -0.10100
H581        H  0.98933429  0.60384017  0.62645166     0.09600
H582        H  0.38691905  0.55156164  0.54072096     0.07100
H583        H  0.39053940  0.34133915  0.63278889     0.07000
O584        O  0.30579957  0.48644105  0.62314517    -0.77600
C585        C  0.29033615  0.44214250  0.49511117     0.83400
O586        O  0.32114342  0.65147780  0.55532560    -0.78700
O587        O  0.20485862  0.57977007  0.94186200    -0.80200
O588        O  0.17580964  0.53225832  0.54658722    -0.80000
O589        O  0.26194914  0.52791256  0.63735952    -0.78600
Zn590      Zn  0.29573261  0.51524611  0.56699841     1.55700
O591        O  0.17558392  0.49328294  0.98825363    -0.80000
Cd592      Cd  0.22734593  0.56361723  0.58003180     1.59700
Cd593      Cd  0.26229195  0.64344995  0.53212677     1.59600
O594        O  0.20901754  0.64288109  0.58849582    -0.80000
O595        O  0.25272417  0.56199102  0.54144838    -1.90500
Cd596      Cd  0.22525612  0.52138322  0.98810506     1.59900
O597        O  0.23427130  0.36745119  0.55717869    -0.80000
O598        O  0.25898465  0.46280923  0.97215550    -0.78600
C599        C  0.34499522  0.61192752  0.56975134     0.83900
C600        C  0.29097231  0.49757798  0.64844771     0.83500
O601        O  0.30522529  0.45559492  0.53297458    -0.77600
C602        C  0.15888579  0.51046636  0.51089003     0.84400
O603        O  0.33607899  0.56237145  0.57456433    -0.77700
C604        C  0.21263034  0.35861149  0.57599162     0.84500
C605        C  0.21058093  0.63204310  0.93882772     0.84800
O606        O  0.23428866  0.66012858  0.96870909    -0.80100
C607        C  0.06000895  0.48705457  0.93770606     0.04000
C608        C  0.04300270  0.53017437  0.95137247    -0.12200
C609        C  0.06148738  0.56157055  0.98668477     0.01500
C610        C  0.09965654  0.55292124  0.50755974    -0.10700
C611        C  0.11813975  0.51160781  0.49354656     0.04000
C612        C  0.09788656  0.47840002  0.95897405    -0.10100
H613        H  0.51551387  0.54251127  0.93516817     0.09600
H614        H  0.11506144  0.57931813  0.53397246     0.07100
H615        H  0.11189777  0.44784582  0.94722125     0.07000
C616        C  0.30911594  0.66552959  0.92702962     0.04000
C617        C  0.34504907  0.64810447  0.95204067    -0.12200
C618        C  0.36535922  0.67756325  0.48882256     0.01500
C619        C  0.34689094  0.38461149  0.50346008    -0.10700
C620        C  0.31062918  0.40148987  0.47888987     0.04000
C621        C  0.29512154  0.38033623  0.93860923    -0.10100
H622        H  0.35811040  0.61499090  0.94126916     0.09600
H623        H  0.36154063  0.40555017  0.53284598     0.07100
H624        H  0.27360811  0.40253207  0.91567098     0.07000
C625        C  0.19127477  0.47667273  0.63658090     0.04000
C626        C  0.21007209  0.43910491  0.62011185    -0.12200
C627        C  0.19192603  0.40602076  0.58540383     0.01500
C628        C  0.15343637  0.41154353  0.56564436    -0.10700
C629        C  0.13399905  0.45210890  0.57939666     0.04000
C630        C  0.15323664  0.48409786  0.61492289    -0.10100
H631        H  0.23859117  0.43053135  0.63465605     0.09600
H632        H  0.13831017  0.38287080  0.54057856     0.07100
H633        H  0.13803184  0.51053755  0.62802004     0.07000
O634        O  0.05472515  0.66307187  0.62325328    -0.77600
C635        C  0.04080354  0.60406994  0.50077312     0.83400
O636        O  0.06978074  0.48425816  0.55216484    -0.78700
O637        O  0.45895142  0.40756336  0.93422854    -0.80200
O638        O  0.42308196  0.36351932  0.54334396    -0.80000
O639        O  0.00929558  0.36691543  0.63720798    -0.78600
Zn640      Zn  0.04450060  0.35177412  0.56640948     1.55700
O641        O  0.42326339  0.32975711  0.98356103    -0.80000
Cd642      Cd  0.47458316  0.39785512  0.57705302     1.59700
Cd643      Cd  0.01003005  0.47740256  0.52771203     1.59600
O644        O  0.45626097  0.47755611  0.58377020    -0.80000
O645        O  0.00067482  0.39642193  0.53848053    -1.90500
Cd646      Cd  0.47477130  0.35371544  0.98511492     1.59900
O647        O  0.48274456  0.53546555  0.55366160    -0.80000
O648        O  0.50941386  0.62326899  0.97630229    -0.78600
C649        C  0.09393699  0.44492364  0.56642830     0.83900
C650        C  0.03965040  0.33946923  0.64840499     0.83500
O651        O  0.05544064  0.62121480  0.53767641    -0.77600
C652        C  0.40635804  0.34328383  0.50689547     0.84400
O653        O  0.08512444  0.39574003  0.57174527    -0.77700
C654        C  0.46090276  0.52677650  0.57232770     0.84500
C655        C  0.46249846  0.46061458  0.93105178     0.84800
O656        O  0.48081615  0.49095748  0.96286123    -0.80100
C657        C  0.44196984  0.82120501  0.38986284     0.04000
C658        C  0.40347345  0.81532930  0.37160951    -0.12200
C659        C  0.38264018  0.84511534  0.33545656     0.01500
C660        C  0.40081341  0.88380438  0.31875148    -0.11500
C661        C  0.43941642  0.88850389  0.33552872     0.04000
C662        C  0.45908321  0.85507010  0.36916559    -0.10100
H663        H  0.38963045  0.78891372  0.38631782     0.09600
H664        H  0.38498779  0.91097491  0.29330440     0.07100
H665        H  0.98771354  0.85692963  0.37703482     0.07000
O666        O  0.19320580  0.82035389  0.20436976    -0.77600
C667        C  0.20837203  0.77286146  0.33257751     0.83400
O668        O  0.17919874  0.98668211  0.26931458    -0.78700
O669        O  0.29222268  0.91606547  0.38630163    -0.80200
O670        O  0.32454675  0.86101987  0.28196590    -0.80000
O671        O  0.23823140  0.86154789  0.19190348    -0.78600
Zn672      Zn  0.20365786  0.84771698  0.26137872     1.55700
O673        O  0.32533679  0.83085283  0.34275113    -0.80000
Cd674      Cd  0.27353910  0.89446119  0.24978014     1.59700
Cd675      Cd  0.23747283  0.97667698  0.29438207     1.59600
O676        O  0.29312847  0.97293452  0.24206627    -0.80000
O677        O  0.24714879  0.89415350  0.28730704    -1.90500
Cd678      Cd  0.27388872  0.85498501  0.34107116     1.59900
O679        O  0.26526292  0.69954314  0.26898191    -0.80000
O680        O  0.23978139  0.79403095  0.35580317    -0.78600
C681        C  0.15530068  0.94674851  0.25650746     0.83900
C682        C  0.20852323  0.83237334  0.17967350     0.83500
O683        O  0.19335470  0.78741038  0.29498288    -0.77600
C684        C  0.34177752  0.84368617  0.31882188     0.84400
O685        O  0.16426901  0.89651451  0.25375661    -0.77700
C686        C  0.28816503  0.68948637  0.25211485     0.84500
C687        C  0.28722742  0.96889438  0.38803794     0.84800
O688        O  0.26451968  0.99626287  0.35734532    -0.80100
C689        C  0.05757761  0.98041437  0.18988969     0.04000
C690        C  0.09549895  0.98984561  0.21191669    -0.12200
C691        C  0.11557310  0.95397445  0.24436267     0.01500
C692        C  0.09713248  0.91117073  0.25691283    -0.10700
C693        C  0.05920726  0.90202902  0.23622453     0.04000
C694        C  0.04083228  0.93478261  0.20195282    -0.10100
H695        H  0.10999171  0.68691322  0.20066412     0.09600
H696        H  0.11293177  0.88332029  0.28195733     0.07100
H697        H  0.51388573  0.92045474  0.18500403     0.07000
C698        C  0.30863745  0.80675128  0.19091454     0.04000
C699        C  0.34700713  0.81120850  0.21049344    -0.12200
C700        C  0.36669176  0.77911394  0.24556102     0.01500
C701        C  0.34748387  0.74016186  0.26053567    -0.10700
C702        C  0.30881019  0.73618444  0.24212689     0.04000
C703        C  0.28998917  0.77092943  0.20875639    -0.10100
H704        H  0.36179033  0.83806417  0.19713723     0.09600
H705        H  0.36258607  0.71174652  0.28546531     0.07100
H706        H  0.26100492  0.76506511  0.19640378     0.07000
O707        O  0.05662290  0.83392356  0.28397329    -0.77600
C708        C  0.04124564  0.79327075  0.39686972     0.83400
O709        O  0.06870265  0.97007378  0.30614061    -0.78700
O710        O  0.45838313  0.98379725  0.33840258    -0.80200
O711        O  0.42308614  0.79009022  0.23675062    -0.80000
O712        O  0.50618942  0.84149972  0.22722851    -0.78600
Zn713      Zn  0.04545159  0.77325603  0.31515802     1.55700
O714        O  0.42503635  0.76175766  0.29855325    -0.80000
Cd715      Cd  0.47448423  0.77271475  0.23631285     1.59700
Cd716      Cd  0.00853079  0.98103852  0.27796430     1.59600
O717        O  0.45995709  0.72051731  0.18440511    -0.80000
O718        O  0.00103463  0.72948144  0.28895522    -1.90500
Cd719      Cd  0.47669961  0.72916863  0.32950453     1.59900
O720        O  0.47913354  0.96958526  0.21223386    -0.80000
O721        O  0.01166475  0.76407688  0.38776363    -0.78600
C722        C  0.09360417  0.67544731  0.32093212     0.83900
C723        C  0.03936957  0.85690831  0.24950251     0.83500
O724        O  0.05525653  0.80190834  0.37060387    -0.77600
C725        C  0.40737546  0.77855509  0.26161188     0.84400
O726        O  0.08511307  0.72566903  0.32401348    -0.77700
C727        C  0.46257365  0.66741337  0.18048933     0.84500
C728        C  0.45956033  0.93486448  0.32406783     0.84800
O729        O  0.47872865  0.92534902  0.30236945    -0.80100
C730        C  0.18900396  0.99353413  0.39908820     0.04000
C731        C  0.15388865  0.97317681  0.37254509    -0.12200
C732        C  0.13413310  0.66822478  0.33548013     0.01500
C733        C  0.15292049  0.71009151  0.32218238    -0.10700
C734        C  0.18829259  0.72988173  0.34791013     0.04000
C735        C  0.20257509  0.70973388  0.38838361    -0.10100
H736        H  0.14042828  0.94030158  0.38300989     0.09600
H737        H  0.13825912  0.73097779  0.29294431     0.07100
H738        H  0.22234520  0.73401375  0.41227425     0.07000
C739        C  0.44315088  0.97484499  0.13813062     0.04000
C740        C  0.46063509  0.94038046  0.11783855    -0.12200
C741        C  0.44127632  0.90754598  0.08341372     0.01500
C742        C  0.40288346  0.91281603  0.06593704    -0.10700
C743        C  0.38470651  0.95239860  0.08189465     0.04000
C744        C  0.40495719  0.98258374  0.11815542    -0.10100
H745        H  0.98932484  0.93717285  0.12644909     0.09600
H746        H  0.38690937  0.88489262  0.04072425     0.07100
H747        H  0.39053244  0.67467031  0.13279295     0.07000
O748        O  0.30578549  0.81976130  0.12314365    -0.77600
C749        C  0.29033148  0.77546706  0.99511104     0.83400
O750        O  0.32113671  0.98480871  0.05533179    -0.78700
O751        O  0.20485565  0.91309929  0.44186108    -0.80200
O752        O  0.17580835  0.86558607  0.04658985    -0.80000
O753        O  0.26193970  0.86124273  0.13736172    -0.78600
Zn754      Zn  0.29572489  0.84857182  0.06699903     1.55700
O755        O  0.17558414  0.82661431  0.48825358    -0.80000
Cd756      Cd  0.22734060  0.89695121  0.08003374     1.59700
Cd757      Cd  0.26228572  0.97678552  0.03213184     1.59600
O758        O  0.20900601  0.97621401  0.08849383    -0.80000
O759        O  0.25271948  0.89532382  0.04145055    -1.90500
Cd760      Cd  0.22525720  0.85471487  0.48810490     1.59900
O761        O  0.23426437  0.70078721  0.05718423    -0.80000
O762        O  0.25898837  0.79614634  0.47215708    -0.78600
C763        C  0.34498784  0.94525745  0.06975714     0.83900
C764        C  0.29095980  0.83090119  0.14844738     0.83500
O765        O  0.30521899  0.78891911  0.03297400    -0.77600
C766        C  0.15888566  0.84379706  0.01089168     0.84400
O767        O  0.33607160  0.89570046  0.07456894    -0.77700
C768        C  0.21262021  0.69194575  0.07599296     0.84500
C769        C  0.21057988  0.96537240  0.43882621     0.84800
O770        O  0.23429160  0.99345534  0.46870443    -0.80100
C771        C  0.06000553  0.82039123  0.43770691     0.04000
C772        C  0.04300109  0.86351124  0.45137333    -0.12200
C773        C  0.06148657  0.89490836  0.48668395     0.01500
C774        C  0.09965663  0.88624930  0.00756164    -0.10700
C775        C  0.11814046  0.84493731  0.99354830     0.04000
C776        C  0.09788406  0.81173638  0.45897270    -0.10100
H777        H  0.51551243  0.87584766  0.43516936     0.09600
H778        H  0.11506122  0.91264493  0.03397563     0.07100
H779        H  0.11189391  0.78118282  0.44721870     0.07000
C780        C  0.30911695  0.99886569  0.42703607     0.04000
C781        C  0.34504832  0.98143901  0.45204622    -0.12200
C782        C  0.36535578  0.01089074  0.98881894     0.01500
C783        C  0.34688590  0.71793297  0.00345909    -0.10700
C784        C  0.31062231  0.73481231  0.97888762     0.04000
C785        C  0.29512166  0.71368506  0.43860679    -0.10100
H786        H  0.35810706  0.94831878  0.44127672     0.09600
H787        H  0.36153430  0.73887010  0.03284543     0.07100
H788        H  0.27363203  0.73586940  0.41568555     0.07000
C789        C  0.19126406  0.81000290  0.13658603     0.04000
C790        C  0.21006127  0.77243487  0.12011674    -0.12200
C791        C  0.19191562  0.73935482  0.08540622     0.01500
C792        C  0.15342635  0.74488200  0.06564469    -0.10700
C793        C  0.13398965  0.78544823  0.07939764     0.04000
C794        C  0.15322695  0.81743319  0.11492572    -0.10100
H795        H  0.23857917  0.76385884  0.13466097     0.09600
H796        H  0.13829991  0.71621232  0.04057722     0.07100
H797        H  0.13802204  0.84387434  0.12802232     0.07000
O798        O  0.05471847  0.99640954  0.12325259    -0.77600
C799        C  0.04080361  0.93739943  0.00077429     0.83400
O800        O  0.06977198  0.81759971  0.05216793    -0.78700
O801        O  0.45894628  0.74090214  0.43422938    -0.80200
O802        O  0.42307614  0.69684889  0.04334146    -0.80000
O803        O  0.00928583  0.70024834  0.13720354    -0.78600
Zn804      Zn  0.04449529  0.68510822  0.06640793     1.55700
O805        O  0.42326613  0.66309163  0.48356312    -0.80000
Cd806      Cd  0.47457537  0.73118780  0.07704981     1.59700
Cd807      Cd  0.01002213  0.81073810  0.02771098     1.59600
O808        O  0.45625319  0.81088773  0.08377029    -0.80000
O809        O  0.00066924  0.72975535  0.03847888    -1.90500
Cd810      Cd  0.47477271  0.68705308  0.48511524     1.59900
O811        O  0.48273227  0.86879859  0.05365779    -0.80000
O812        O  0.50941481  0.95660947  0.47630028    -0.78600
C813        C  0.09392784  0.77826432  0.06642883     0.83900
C814        C  0.03964169  0.67280505  0.14840239     0.83500
O815        O  0.05544118  0.95454830  0.03767687    -0.77600
C816        C  0.40635415  0.67661362  0.00689298     0.84400
O817        O  0.08511523  0.72907995  0.07174313    -0.77700
C818        C  0.46089294  0.86010848  0.07232688     0.84500
C819        C  0.46249324  0.79395357  0.43105458     0.84800
O820        O  0.48081627  0.82429283  0.46286400    -0.80100
C821        C  0.44197916  0.82119472  0.88985740     0.04000
C822        C  0.40348319  0.81531952  0.87160090    -0.12200
C823        C  0.38265199  0.84510482  0.83544722     0.01500
C824        C  0.40082716  0.88378992  0.81874176    -0.11500
C825        C  0.43943022  0.88848741  0.83552115     0.04000
C826        C  0.45909446  0.85505755  0.86916101    -0.10100
H827        H  0.38963827  0.78890594  0.88630894     0.09600
H828        H  0.38500313  0.91095986  0.79329390     0.07100
H829        H  0.98772472  0.85692018  0.87703322     0.07000
O830        O  0.19322313  0.82034247  0.70436781    -0.77600
C831        C  0.20838485  0.77285713  0.83257541     0.83400
O832        O  0.17920869  0.98667164  0.76930706    -0.78700
O833        O  0.29222889  0.91606578  0.88629236    -0.80200
O834        O  0.32455884  0.86101691  0.78195809    -0.80000
O835        O  0.23823867  0.86156091  0.69189615    -0.78600
Zn836      Zn  0.20367394  0.84770802  0.76137500     1.55700
O837        O  0.32534939  0.83085174  0.84274432    -0.80000
Cd838      Cd  0.27355224  0.89446432  0.74977443     1.59700
Cd839      Cd  0.23748203  0.97667342  0.79437201     1.59600
O840        O  0.29314380  0.97293882  0.74206652    -0.80000
O841        O  0.24716231  0.89414996  0.78730119    -1.90500
Cd842      Cd  0.27390118  0.85498158  0.84106535     1.59900
O843        O  0.26526638  0.69954600  0.76896860    -0.80000
O844        O  0.23979487  0.79402714  0.85580219    -0.78600
C845        C  0.15531253  0.94673574  0.75650098     0.83900
C846        C  0.20853462  0.83237601  0.67966850     0.83500
O847        O  0.19337016  0.78740415  0.79498087    -0.77600
C848        C  0.34178955  0.84368193  0.81881376     0.84400
O849        O  0.16428293  0.89650278  0.75375060    -0.77700
C850        C  0.28817398  0.68949108  0.75210869     0.84500
C851        C  0.28723201  0.96889290  0.88802953     0.84800
O852        O  0.26452540  0.99626278  0.85733535    -0.80100
C853        C  0.05758770  0.98040851  0.68989128     0.04000
C854        C  0.09550979  0.98983617  0.71191642    -0.12200
C855        C  0.11558508  0.95395901  0.74435758     0.01500
C856        C  0.09714558  0.91115289  0.75690692    -0.10700
C857        C  0.05921959  0.90201553  0.73622133     0.04000
C858        C  0.04084337  0.93477448  0.70195313    -0.10100
H859        H  0.11000195  0.68690685  0.70066452     0.09600
H860        H  0.11294533  0.88329939  0.78194832     0.07100
H861        H  0.51389660  0.92044811  0.68500513     0.07000
C862        C  0.30864957  0.80676221  0.69091521     0.04000
C863        C  0.34701964  0.81121574  0.71049446    -0.12200
C864        C  0.36670316  0.77911500  0.74555931     0.01500
C865        C  0.34749340  0.74016291  0.76053110    -0.10700
C866        C  0.30881970  0.73619043  0.74212314     0.04000
C867        C  0.28999977  0.77094000  0.70875494    -0.10100
H868        H  0.36180392  0.83807191  0.69713983     0.09600
H869        H  0.36259433  0.71174349  0.78545864     0.07100
H870        H  0.26101605  0.76507628  0.69640030     0.07000
O871        O  0.05663522  0.83391213  0.78397149    -0.77600
C872        C  0.04125259  0.79326421  0.89686872     0.83400
O873        O  0.06871536  0.97006709  0.80613118    -0.78700
O874        O  0.45839759  0.98378002  0.83839866    -0.80200
O875        O  0.42309898  0.79009590  0.73675253    -0.80000
O876        O  0.50620141  0.84148965  0.72722732    -0.78600
Zn877      Zn  0.04546389  0.77324616  0.81515786     1.55700
O878        O  0.42504646  0.76173921  0.79854862    -0.80000
Cd879      Cd  0.47449501  0.77270978  0.73631381     1.59700
Cd880      Cd  0.00854369  0.98103049  0.77795999     1.59600
O881        O  0.45996240  0.72051492  0.68440510    -0.80000
O882        O  0.00104670  0.72947205  0.78895408    -1.90500
Cd883      Cd  0.47671104  0.72915426  0.82950237     1.59900
O884        O  0.47914381  0.96958241  0.71223030    -0.80000
O885        O  0.01167303  0.76406673  0.88776173    -0.78600
C886        C  0.09361667  0.67543977  0.82092471     0.83900
C887        C  0.03938202  0.85689642  0.74950049     0.83500
O888        O  0.05526570  0.80190063  0.87060428    -0.77600
C889        C  0.40738692  0.77855037  0.76161055     0.84400
O890        O  0.08512621  0.72566049  0.82401093    -0.77700
C891        C  0.46258066  0.66741185  0.68048747     0.84500
C892        C  0.45957520  0.93484843  0.82406246     0.84800
O893        O  0.47874368  0.92533522  0.80236390    -0.80100
C894        C  0.18900955  0.99353703  0.89908767     0.04000
C895        C  0.15389761  0.97317137  0.87253821    -0.12200
C896        C  0.13414520  0.66821613  0.83547193     0.01500
C897        C  0.15293286  0.71008343  0.82217551    -0.10700
C898        C  0.18830377  0.72987976  0.84790853     0.04000
C899        C  0.20257561  0.70973332  0.88837962    -0.10100
H900        H  0.14043693  0.94029446  0.88300074     0.09600
H901        H  0.13827399  0.73096678  0.79293604     0.07100
H902        H  0.22235679  0.73403336  0.91228718     0.07000
C903        C  0.44315801  0.97484541  0.63812864     0.04000
C904        C  0.46064320  0.94038137  0.61783785    -0.12200
C905        C  0.44128518  0.90754809  0.58341217     0.01500
C906        C  0.40289225  0.91281880  0.56593375    -0.10700
C907        C  0.38471440  0.95240172  0.58189022     0.04000
C908        C  0.40496452  0.98258556  0.61815212    -0.10100
H909        H  0.98933363  0.93717309  0.62645106     0.09600
H910        H  0.38691866  0.88489550  0.54072045     0.07100
H911        H  0.39053932  0.67467224  0.63278901     0.07000
O912        O  0.30579948  0.81977455  0.62314530    -0.77600
C913        C  0.29033608  0.77547592  0.49511112     0.83400
O914        O  0.32114346  0.98481110  0.55532539    -0.78700
O915        O  0.20485864  0.91310339  0.94186199    -0.80200
O916        O  0.17580951  0.86559183  0.54658733    -0.80000
O917        O  0.26194910  0.86124623  0.63735964    -0.78600
Zn918      Zn  0.29573268  0.84857954  0.56699847     1.55700
O919        O  0.17558395  0.82661647  0.98825382    -0.80000
Cd920      Cd  0.22734592  0.89695063  0.58003180     1.59700
Cd921      Cd  0.26229198  0.97678331  0.53212668     1.59600
O922        O  0.20901757  0.97621445  0.58849562    -0.80000
O923        O  0.25272416  0.89532436  0.54144842    -1.90500
Cd924      Cd  0.22525614  0.85471662  0.98810521     1.59900
O925        O  0.23427133  0.70078452  0.55717879    -0.80000
O926        O  0.25898469  0.79614259  0.97215557    -0.78600
C927        C  0.34499524  0.94526090  0.56975129     0.83900
C928        C  0.29097217  0.83091143  0.64844778     0.83500
O929        O  0.30522525  0.78892831  0.53297456    -0.77600
C930        C  0.15888574  0.84379994  0.51089005     0.84400
O931        O  0.33607911  0.89570485  0.57456440    -0.77700
C932        C  0.21263034  0.69194487  0.57599169     0.84500
C933        C  0.21058091  0.96537657  0.93882767     0.84800
O934        O  0.23428861  0.99346214  0.96870895    -0.80100
C935        C  0.06000891  0.82038837  0.93770595     0.04000
C936        C  0.04300271  0.86350800  0.95137239    -0.12200
C937        C  0.06148725  0.89490405  0.98668482     0.01500
C938        C  0.09965648  0.88625451  0.50755968    -0.10700
C939        C  0.11813975  0.84494140  0.49354651     0.04000
C940        C  0.09788650  0.81173359  0.95897380    -0.10100
H941        H  0.51551391  0.87584482  0.93516790     0.09600
H942        H  0.11506153  0.91265115  0.53397293     0.07100
H943        H  0.11189762  0.78117981  0.94722102     0.07000
C944        C  0.30911609  0.99886333  0.92702932     0.04000
C945        C  0.34504928  0.98143793  0.95204021    -0.12200
C946        C  0.36535937  0.01089696  0.48882245     0.01500
C947        C  0.34689077  0.71794509  0.50346000    -0.10700
C948        C  0.31062905  0.73482335  0.47888980     0.04000
C949        C  0.29512150  0.71366949  0.93860926    -0.10100
H950        H  0.35811037  0.94832456  0.94126881     0.09600
H951        H  0.36154028  0.73888359  0.53284609     0.07100
H952        H  0.27360707  0.73586544  0.91567054     0.07000
C953        C  0.19127474  0.81000625  0.63658095     0.04000
C954        C  0.21007222  0.77243835  0.62011197    -0.12200
C955        C  0.19192601  0.73935416  0.58540396     0.01500
C956        C  0.15343639  0.74487710  0.56564448    -0.10700
C957        C  0.13399903  0.78544248  0.57939668     0.04000
C958        C  0.15323657  0.81743160  0.61492291    -0.10100
H959        H  0.23859078  0.76386457  0.63465567     0.09600
H960        H  0.13831018  0.71620434  0.54057875     0.07100
H961        H  0.13803182  0.84387170  0.62801967     0.07000
O962        O  0.05472498  0.99640540  0.62325328    -0.77600
C963        C  0.04080338  0.93740319  0.50077324     0.83400
O964        O  0.06978070  0.81759142  0.55216474    -0.78700
O965        O  0.45895131  0.74089642  0.93422849    -0.80200
O966        O  0.42308183  0.69685266  0.54334390    -0.80000
O967        O  0.00929565  0.70024859  0.63720793    -0.78600
Zn968      Zn  0.04450070  0.68510753  0.56640946     1.55700
O969        O  0.42326335  0.66309030  0.98356110    -0.80000
Cd970      Cd  0.47458309  0.73118846  0.57705303     1.59700
Cd971      Cd  0.01002999  0.81073586  0.52771202     1.59600
O972        O  0.45626075  0.81088949  0.58376995    -0.80000
O973        O  0.00067484  0.72975520  0.53848057    -1.90500
Cd974      Cd  0.47477128  0.68704872  0.98511496     1.59900
O975        O  0.48274455  0.86879904  0.55366169    -0.80000
O976        O  0.50941404  0.95660257  0.97630219    -0.78600
C977        C  0.09393699  0.77825703  0.56642822     0.83900
C978        C  0.03965050  0.67280245  0.64840489     0.83500
O979        O  0.05544050  0.95454805  0.53767659    -0.77600
C980        C  0.40635794  0.67661721  0.50689546     0.84400
O981        O  0.08512453  0.72907345  0.57174538    -0.77700
C982        C  0.46090250  0.86010989  0.57232748     0.84500
C983        C  0.46249844  0.79394764  0.93105181     0.84800
O984        O  0.48081632  0.82429049  0.96286124    -0.80100
C985        C  0.94196972  0.15453830  0.38986268     0.04000
C986        C  0.90347334  0.14866239  0.37160927    -0.12200
C987        C  0.88264017  0.17844846  0.33545624     0.01500
C988        C  0.90081339  0.21713783  0.31875122    -0.11500
C989        C  0.93941642  0.22183727  0.33552864     0.04000
C990        C  0.95908313  0.18840352  0.36916556    -0.10100
H991        H  0.88963046  0.12224609  0.38631713     0.09600
H992        H  0.88498807  0.24430816  0.29330426     0.07100
H993        H  0.48771388  0.19026274  0.37703502     0.07000
O994        O  0.69320578  0.15368684  0.20436974    -0.77600
C995        C  0.70837192  0.10619414  0.33257728     0.83400
O996        O  0.67919885  0.32001500  0.26931463    -0.78700
O997        O  0.79222266  0.24939822  0.38630168    -0.80200
O998        O  0.82454673  0.19435328  0.28196573    -0.80000
O999        O  0.73823134  0.19488102  0.19190335    -0.78600
Zn1000     Zn  0.70365779  0.18104984  0.26137868     1.55700
O1001       O  0.82533685  0.16418559  0.34275093    -0.80000
Cd1002     Cd  0.77353908  0.22779441  0.24977992     1.59700
Cd1003     Cd  0.73747290  0.31000985  0.29438211     1.59600
O1004       O  0.79312827  0.30626794  0.24206600    -0.80000
O1005       O  0.74714893  0.22748630  0.28730696    -1.90500
Cd1006     Cd  0.77388877  0.18831766  0.34107111     1.59900
O1007       O  0.76526270  0.03287648  0.26898172    -0.80000
O1008       O  0.73978127  0.12736358  0.35580285    -0.78600
C1009       C  0.65530074  0.28008145  0.25650753     0.83900
C1010       C  0.70852315  0.16570649  0.17967347     0.83500
O1011       O  0.69335448  0.12074305  0.29498261    -0.77600
C1012       C  0.84177752  0.17701948  0.31882168     0.84400
O1013       O  0.66426897  0.22984742  0.25375663    -0.77700
C1014       C  0.78816490  0.02281973  0.25211478     0.84500
C1015       C  0.78722738  0.30222715  0.38803800     0.84800
O1016       O  0.76451960  0.32959574  0.35734538    -0.80100
C1017       C  0.55757764  0.31374741  0.18988971     0.04000
C1018       C  0.59549901  0.32317850  0.21191684    -0.12200
C1019       C  0.61557316  0.28730748  0.24436278     0.01500
C1020       C  0.59713250  0.24450377  0.25691286    -0.10700
C1021       C  0.55920722  0.23536208  0.23622452     0.04000
C1022       C  0.54083272  0.26811588  0.20195316    -0.10100
H1023       H  0.60999181  0.02024668  0.20066403     0.09600
H1024       H  0.61293177  0.21665322  0.28195755     0.07100
H1025       H  0.01388670  0.25378793  0.18500512     0.07000
C1026       C  0.80863723  0.14008437  0.19091438     0.04000
C1027       C  0.84700684  0.14454157  0.21049331    -0.12200
C1028       C  0.86669164  0.11244724  0.24556082     0.01500
C1029       C  0.84748363  0.07349530  0.26053542    -0.10700
C1030       C  0.80880999  0.06951776  0.24212666     0.04000
C1031       C  0.78998865  0.10426258  0.20875607    -0.10100
H1032       H  0.86179015  0.17139750  0.19713701     0.09600
H1033       H  0.86258578  0.04508015  0.28546527     0.07100
H1034       H  0.76100517  0.09839794  0.19640375     0.07000
O1035       O  0.55662289  0.16725647  0.28397324    -0.77600
C1036       C  0.54124559  0.12660378  0.39686966     0.83400
O1037       O  0.56870268  0.30340720  0.30614039    -0.78700
O1038       O  0.95838326  0.31713053  0.33840265    -0.80200
O1039       O  0.92308604  0.12342353  0.23675026    -0.80000
O1040       O  0.00618944  0.17483254  0.22722842    -0.78600
Zn1041     Zn  0.54545148  0.10658903  0.31515789     1.55700
O1042       O  0.92503633  0.09509102  0.29855295    -0.80000
Cd1043     Cd  0.97448421  0.10604783  0.23631267     1.59700
Cd1044     Cd  0.50853076  0.31437193  0.27796428     1.59600
O1045       O  0.95995711  0.05385056  0.18440496    -0.80000
O1046       O  0.50103449  0.06281451  0.28895511    -1.90500
Cd1047     Cd  0.97669964  0.06250197  0.32950441     1.59900
O1048       O  0.97913351  0.30291887  0.21223385    -0.80000
O1049       O  0.51166461  0.09741009  0.38776356    -0.78600
C1050       C  0.59360400  0.00878017  0.32093223     0.83900
C1051       C  0.53936964  0.19024120  0.24950248     0.83500
O1052       O  0.55525640  0.13524128  0.37060370    -0.77600
C1053       C  0.90737537  0.11188833  0.26161158     0.84400
O1054       O  0.58511292  0.05900193  0.32401347    -0.77700
C1055       C  0.96257364  0.00074660  0.18048921     0.84500
C1056       C  0.95956033  0.26819787  0.32406769     0.84800
O1057       O  0.97872859  0.25868253  0.30236920    -0.80100
C1058       C  0.68900391  0.32686775  0.39908824     0.04000
C1059       C  0.65388879  0.30651061  0.37254491    -0.12200
C1060       C  0.63413297  0.00155763  0.33548025     0.01500
C1061       C  0.65292032  0.04342445  0.32218235    -0.10700
C1062       C  0.68829245  0.06321461  0.34791007     0.04000
C1063       C  0.70257523  0.04306694  0.38838381    -0.10100
H1064       H  0.64042803  0.27363494  0.38300968     0.09600
H1065       H  0.63825903  0.06431012  0.29294420     0.07100
H1066       H  0.72234474  0.06734640  0.41227398     0.07000
C1067       C  0.94315091  0.30817879  0.13813063     0.04000
C1068       C  0.96063551  0.27371408  0.11783880    -0.12200
C1069       C  0.94127628  0.24087970  0.08341372     0.01500
C1070       C  0.90288356  0.24614998  0.06593736    -0.10700
C1071       C  0.88470652  0.28573231  0.08189489     0.04000
C1072       C  0.90495726  0.31591764  0.11815574    -0.10100
H1073       H  0.48932571  0.27050635  0.12644988     0.09600
H1074       H  0.88690921  0.21822654  0.04072410     0.07100
H1075       H  0.89053256  0.00800371  0.13279297     0.07000
O1076       O  0.80578538  0.15309458  0.12314365    -0.77600
C1077       C  0.79033145  0.10880067  0.99511084     0.83400
O1078       O  0.82113662  0.31814217  0.05533184    -0.78700
O1079       O  0.70485541  0.24643275  0.44186087    -0.80200
O1080       O  0.67580825  0.19891913  0.04658981    -0.80000
O1081       O  0.76193958  0.19457611  0.13736161    -0.78600
Zn1082     Zn  0.79572491  0.18190530  0.06699896     1.55700
O1083       O  0.67558392  0.15994759  0.48825340    -0.80000
Cd1084     Cd  0.72734050  0.23028437  0.08003362     1.59700
Cd1085     Cd  0.76228562  0.31011904  0.03213185     1.59600
O1086       O  0.70900595  0.30954719  0.08849381    -0.80000
O1087       O  0.75271940  0.22865724  0.04145042    -1.90500
Cd1088     Cd  0.72525702  0.18804828  0.48810465     1.59900
O1089       O  0.73426442  0.03412021  0.05718421    -0.80000
O1090       O  0.75898825  0.12947984  0.47215684    -0.78600
C1091       C  0.84498783  0.27859106  0.06975725     0.83900
C1092       C  0.79095961  0.16423447  0.14844730     0.83500
O1093       O  0.80521895  0.12225285  0.03297373    -0.77600
C1094       C  0.65888566  0.17713005  0.01089160     0.84400
O1095       O  0.83607167  0.22903394  0.07456904    -0.77700
C1096       C  0.71262017  0.02527889  0.07599286     0.84500
C1097       C  0.71057975  0.29870594  0.43882616     0.84800
O1098       O  0.73429147  0.32678870  0.46870444    -0.80100
C1099       C  0.56000548  0.15372453  0.43770685     0.04000
C1100       C  0.54300118  0.19684459  0.45137338    -0.12200
C1101       C  0.56148657  0.22824173  0.48668382     0.01500
C1102       C  0.59965669  0.21958255  0.00756145    -0.10700
C1103       C  0.61814048  0.17827039  0.99354815     0.04000
C1104       C  0.59788405  0.14506961  0.45897279    -0.10100
H1105       H  0.01551257  0.20918117  0.43516957     0.09600
H1106       H  0.61506114  0.24597859  0.03397519     0.07100
H1107       H  0.61189394  0.11451548  0.44721910     0.07000
C1108       C  0.80911681  0.33219850  0.42703618     0.04000
C1109       C  0.84504827  0.31477207  0.45204635    -0.12200
C1110       C  0.86535581  0.34422406  0.98881907     0.01500
C1111       C  0.84688594  0.05126645  0.00345931    -0.10700
C1112       C  0.81062240  0.06814587  0.97888760     0.04000
C1113       C  0.79512162  0.04701853  0.43860675    -0.10100
H1114       H  0.85810695  0.28165153  0.44127703     0.09600
H1115       H  0.86153397  0.07220279  0.03284546     0.07100
H1116       H  0.77363228  0.06920291  0.41568552     0.07000
C1117       C  0.69126400  0.14333618  0.13658599     0.04000
C1118       C  0.71006134  0.10576822  0.12011671    -0.12200
C1119       C  0.69191559  0.07268817  0.08540607     0.01500
C1120       C  0.65342635  0.07821553  0.06564484    -0.10700
C1121       C  0.63398959  0.11878159  0.07939773     0.04000
C1122       C  0.65322681  0.15076665  0.11492596    -0.10100
H1123       H  0.73857889  0.09719266  0.13466016     0.09600
H1124       H  0.63829976  0.04954585  0.04057701     0.07100
H1125       H  0.63802218  0.17720749  0.12802225     0.07000
O1126       O  0.55471860  0.32974231  0.12325254    -0.77600
C1127       C  0.54080363  0.27073257  0.00077412     0.83400
O1128       O  0.56977186  0.15093317  0.05216799    -0.78700
O1129       O  0.95894609  0.07423547  0.43422921    -0.80200
O1130       O  0.92307622  0.03018259  0.04334148    -0.80000
O1131       O  0.50928566  0.03358151  0.13720330    -0.78600
Zn1132     Zn  0.54449523  0.01844158  0.06640791     1.55700
O1133       O  0.92326602  0.99642504  0.48356310    -0.80000
Cd1134     Cd  0.97457541  0.06452141  0.07704980     1.59700
Cd1135     Cd  0.51002209  0.14407151  0.02771110     1.59600
O1136       O  0.95625316  0.14422135  0.08377045    -0.80000
O1137       O  0.50066919  0.06308871  0.03847883    -1.90500
Cd1138     Cd  0.97477258  0.02038664  0.48511519     1.59900
O1139       O  0.98273211  0.20213210  0.05365755    -0.80000
O1140       O  0.00941489  0.28994271  0.47630041    -0.78600
C1141       C  0.59392772  0.11159777  0.06642872     0.83900
C1142       C  0.53964165  0.00613857  0.14840234     0.83500
O1143       O  0.55544128  0.28788169  0.03767657    -0.77600
C1144       C  0.90635417  0.00994712  0.00689309     0.84400
O1145       O  0.58511514  0.06241330  0.07174297    -0.77700
C1146       C  0.96089290  0.19344212  0.07232685     0.84500
C1147       C  0.96249311  0.12728685  0.43105436     0.84800
O1148       O  0.98081607  0.15762616  0.46286375    -0.80100
C1149       C  0.94197896  0.15452822  0.88985728     0.04000
C1150       C  0.90348284  0.14865251  0.87160068    -0.12200
C1151       C  0.88265188  0.17843801  0.83544685     0.01500
C1152       C  0.90082704  0.21712324  0.81874140    -0.11500
C1153       C  0.93943021  0.22182080  0.83552097     0.04000
C1154       C  0.95909421  0.18839110  0.86916094    -0.10100
H1155       H  0.88963819  0.12223889  0.88630810     0.09600
H1156       H  0.88500328  0.24429305  0.79329377     0.07100
H1157       H  0.48772549  0.19025370  0.87703417     0.07000
O1158       O  0.69322314  0.15367531  0.70436774    -0.77600
C1159       C  0.70838487  0.10618995  0.83257543     0.83400
O1160       O  0.67920883  0.32000452  0.76930714    -0.78700
O1161       O  0.79222901  0.24939859  0.88629252    -0.80200
O1162       O  0.82455871  0.19435031  0.78195774    -0.80000
O1163       O  0.73823850  0.19489421  0.69189593    -0.78600
Zn1164     Zn  0.70367389  0.18104095  0.76137495     1.55700
O1165       O  0.82534925  0.16418478  0.84274388    -0.80000
Cd1166     Cd  0.77355209  0.22779759  0.74977420     1.59700
Cd1167     Cd  0.73748209  0.31000636  0.79437205     1.59600
O1168       O  0.79314358  0.30627213  0.74206617    -0.80000
O1169       O  0.74716221  0.22748294  0.78730111    -1.90500
Cd1170     Cd  0.77390117  0.18831449  0.84106525     1.59900
O1171       O  0.76526619  0.03287936  0.76896846    -0.80000
O1172       O  0.73979483  0.12735992  0.85580195    -0.78600
C1173       C  0.65531256  0.28006872  0.75650095     0.83900
C1174       C  0.70853458  0.16570914  0.67966836     0.83500
O1175       O  0.69337004  0.12073701  0.79498090    -0.77600
C1176       C  0.84178941  0.17701523  0.81881341     0.84400
O1177       O  0.66428287  0.22983574  0.75375041    -0.77700
C1178       C  0.78817386  0.02282440  0.75210863     0.84500
C1179       C  0.78723204  0.30222571  0.88802967     0.84800
O1180       O  0.76452531  0.32959556  0.85733548    -0.80100
C1181       C  0.55758766  0.31374134  0.68989126     0.04000
C1182       C  0.59550963  0.32316909  0.71191625    -0.12200
C1183       C  0.61558506  0.28729198  0.74435749     0.01500
C1184       C  0.59714538  0.24448586  0.75690669    -0.10700
C1185       C  0.55921952  0.23534844  0.73622130     0.04000
C1186       C  0.54084280  0.26810718  0.70195274    -0.10100
H1187       H  0.61000192  0.02024038  0.70066466     0.09600
H1188       H  0.61294516  0.21663230  0.78194837     0.07100
H1189       H  0.01389603  0.25378115  0.68500483     0.07000
C1190       C  0.80864944  0.14009538  0.69091509     0.04000
C1191       C  0.84701939  0.14454858  0.71049439    -0.12200
C1192       C  0.86670301  0.11244802  0.74555914     0.01500
C1193       C  0.84749328  0.07349595  0.76053106    -0.10700
C1194       C  0.80881960  0.06952361  0.74212308     0.04000
C1195       C  0.78999976  0.10427316  0.70875492    -0.10100
H1196       H  0.86180395  0.17140507  0.69713951     0.09600
H1197       H  0.86259429  0.04507638  0.78545856     0.07100
H1198       H  0.76101579  0.09840965  0.69640035     0.07000
O1199       O  0.55663518  0.16724510  0.78397150    -0.77600
C1200       C  0.54125247  0.12659703  0.89686866     0.83400
O1201       O  0.56871537  0.30340045  0.80613099    -0.78700
O1202       O  0.95839778  0.31711342  0.83839872    -0.80200
O1203       O  0.92309881  0.12342900  0.73675224    -0.80000
O1204       O  0.00620134  0.17482276  0.72722715    -0.78600
Zn1205     Zn  0.54546375  0.10657911  0.81515786     1.55700
O1206       O  0.92504639  0.09507246  0.79854840    -0.80000
Cd1207     Cd  0.97449491  0.10604289  0.73631363     1.59700
Cd1208     Cd  0.50854377  0.31436382  0.77795995     1.59600
O1209       O  0.95996253  0.05384785  0.68440502    -0.80000
O1210       O  0.50104652  0.06280498  0.78895414    -1.90500
Cd1211     Cd  0.97671093  0.06248759  0.82950230     1.59900
O1212       O  0.97914395  0.30291634  0.71223020    -0.80000
O1213       O  0.51167277  0.09739980  0.88776167    -0.78600
C1214       C  0.59361658  0.00877283  0.82092462     0.83900
C1215       C  0.53938190  0.19022939  0.74950040     0.83500
O1216       O  0.55526547  0.13523357  0.87060417    -0.77600
C1217       C  0.90738679  0.11188368  0.76161040     0.84400
O1218       O  0.58512605  0.05899344  0.82401096    -0.77700
C1219       C  0.96258067  0.00074478  0.68048741     0.84500
C1220       C  0.95957520  0.26818191  0.82406231     0.84800
O1221       O  0.97874369  0.25866871  0.80236374    -0.80100
C1222       C  0.68900947  0.32687081  0.89908783     0.04000
C1223       C  0.65389776  0.30650507  0.87253822    -0.12200
C1224       C  0.63414519  0.00154941  0.83547199     0.01500
C1225       C  0.65293300  0.04341657  0.82217564    -0.10700
C1226       C  0.68830384  0.06321262  0.84790859     0.04000
C1227       C  0.70257606  0.04306685  0.88838012    -0.10100
H1228       H  0.64043698  0.27362819  0.88300114     0.09600
H1229       H  0.63827419  0.06429971  0.79293602     0.07100
H1230       H  0.72235619  0.06736551  0.91228649     0.07000
C1231       C  0.94315799  0.30817922  0.63812853     0.04000
C1232       C  0.96064343  0.27371493  0.61783792    -0.12200
C1233       C  0.94128516  0.24088181  0.58341210     0.01500
C1234       C  0.90289227  0.24615240  0.56593397    -0.10700
C1235       C  0.88471434  0.28573531  0.58189032     0.04000
C1236       C  0.90496441  0.31591928  0.61815221    -0.10100
H1237       H  0.48933234  0.27050683  0.62645037     0.09600
H1238       H  0.88691868  0.21822892  0.54072080     0.07100
H1239       H  0.89053949  0.00800517  0.63278908     0.07000
O1240       O  0.80579945  0.15310791  0.62314526    -0.77600
C1241       C  0.79033597  0.10880939  0.49511105     0.83400
O1242       O  0.82114336  0.31814481  0.55532551    -0.78700
O1243       O  0.70485858  0.24643692  0.94186187    -0.80200
O1244       O  0.67580948  0.19892516  0.54658720    -0.80000
O1245       O  0.76194901  0.19457942  0.63735954    -0.78600
Zn1246     Zn  0.79573256  0.18191305  0.56699836     1.55700
O1247       O  0.67558395  0.15994989  0.98825368    -0.80000
Cd1248     Cd  0.72734582  0.23028396  0.58003173     1.59700
Cd1249     Cd  0.76229188  0.31011670  0.53212668     1.59600
O1250       O  0.70901748  0.30954776  0.58849568    -0.80000
O1251       O  0.75272395  0.22865775  0.54144823    -1.90500
Cd1252     Cd  0.72525616  0.18805005  0.98810504     1.59900
O1253       O  0.73427136  0.03411737  0.55717880    -0.80000
O1254       O  0.75898459  0.12947597  0.97215532    -0.78600
C1255       C  0.84499515  0.27859453  0.56975130     0.83900
C1256       C  0.79097207  0.16424462  0.64844771     0.83500
O1257       O  0.80522512  0.12226186  0.53297447    -0.77600
C1258       C  0.65888563  0.17713336  0.51088993     0.84400
O1259       O  0.83607904  0.22903835  0.57456429    -0.77700
C1260       C  0.71263039  0.02527783  0.57599171     0.84500
C1261       C  0.71058085  0.29871021  0.93882772     0.84800
O1262       O  0.73428848  0.32679557  0.96870903    -0.80100
C1263       C  0.56000886  0.15372126  0.93770582     0.04000
C1264       C  0.54300296  0.19684081  0.95137249    -0.12200
C1265       C  0.56148722  0.22823718  0.98668458     0.01500
C1266       C  0.59965647  0.21958787  0.50755965    -0.10700
C1267       C  0.61813969  0.17827466  0.49354649     0.04000
C1268       C  0.59788665  0.14506637  0.95897359    -0.10100
H1269       H  0.01551326  0.20917829  0.93516748     0.09600
H1270       H  0.61506139  0.24598446  0.53397266     0.07100
H1271       H  0.61189750  0.11451289  0.94722087     0.07000
C1272       C  0.80911606  0.33219618  0.92702951     0.04000
C1273       C  0.84504932  0.31477102  0.95204048    -0.12200
C1274       C  0.86535931  0.34423021  0.48882251     0.01500
C1275       C  0.84689077  0.05127844  0.50346016    -0.10700
C1276       C  0.81062904  0.06815677  0.47888979     0.04000
C1277       C  0.79512150  0.04700349  0.93860904    -0.10100
H1278       H  0.85811046  0.28165772  0.94126918     0.09600
H1279       H  0.86154028  0.07221684  0.53284613     0.07100
H1280       H  0.77360852  0.06919929  0.91567119     0.07000
C1281       C  0.69127481  0.14333933  0.63658085     0.04000
C1282       C  0.71007260  0.10577133  0.62011217    -0.12200
C1283       C  0.69192617  0.07268733  0.58540387     0.01500
C1284       C  0.65343661  0.07821013  0.56564441    -0.10700
C1285       C  0.63399910  0.11877548  0.57939649     0.04000
C1286       C  0.65323678  0.15076433  0.61492269    -0.10100
H1287       H  0.73859056  0.09719803  0.63465545     0.09600
H1288       H  0.63831040  0.04953719  0.54057841     0.07100
H1289       H  0.63803167  0.17720444  0.62801957     0.07000
O1290       O  0.55472502  0.32973818  0.62325332    -0.77600
C1291       C  0.54080345  0.27073646  0.50077312     0.83400
O1292       O  0.56978078  0.15092489  0.55216473    -0.78700
O1293       O  0.95895126  0.07422998  0.93422854    -0.80200
O1294       O  0.92308188  0.03018612  0.54334392    -0.80000
O1295       O  0.50929558  0.03358201  0.63720793    -0.78600
Zn1296     Zn  0.54450065  0.01844099  0.56640947     1.55700
O1297       O  0.92326331  0.99642361  0.98356119    -0.80000
Cd1298     Cd  0.97458302  0.06452208  0.57705305     1.59700
Cd1299     Cd  0.51003006  0.14406952  0.52771204     1.59600
O1300       O  0.95626070  0.14422312  0.58376997    -0.80000
O1301       O  0.50067495  0.06308895  0.53848048    -1.90500
Cd1302     Cd  0.97477117  0.02038214  0.98511493     1.59900
O1303       O  0.98274436  0.20213256  0.55366146    -0.80000
O1304       O  0.00941400  0.28993564  0.97630215    -0.78600
C1305       C  0.59393705  0.11159035  0.56642822     0.83900
C1306       C  0.53965035  0.00613585  0.64840493     0.83500
O1307       O  0.55544048  0.28788129  0.53767642    -0.77600
C1308       C  0.90635792  0.00995057  0.50689557     0.84400
O1309       O  0.58512449  0.06240674  0.57174515    -0.77700
C1310       C  0.96090241  0.19344350  0.57232738     0.84500
C1311       C  0.96249815  0.12728117  0.93105172     0.84800
O1312       O  0.98081607  0.15762420  0.96286104    -0.80100
C1313       C  0.94196996  0.48787199  0.38986255     0.04000
C1314       C  0.90347357  0.48199645  0.37160892    -0.12200
C1315       C  0.88264020  0.51178239  0.33545617     0.01500
C1316       C  0.90081322  0.55047192  0.31875086    -0.11500
C1317       C  0.93941642  0.55517093  0.33552849     0.04000
C1318       C  0.95908323  0.52173722  0.36916527    -0.10100
H1319       H  0.88963039  0.45557998  0.38631709     0.09600
H1320       H  0.88498803  0.57764188  0.29330451     0.07100
H1321       H  0.48771382  0.52359625  0.37703526     0.07000
O1322       O  0.69320569  0.48702070  0.20436972    -0.77600
C1323       C  0.70837194  0.43952802  0.33257726     0.83400
O1324       O  0.67919885  0.65334874  0.26931461    -0.78700
O1325       O  0.79222266  0.58273173  0.38630163    -0.80200
O1326       O  0.82454664  0.52768663  0.28196570    -0.80000
O1327       O  0.73823137  0.52821436  0.19190329    -0.78600
Zn1328     Zn  0.70365776  0.51438363  0.26137865     1.55700
O1329       O  0.82533697  0.49751931  0.34275106    -0.80000
Cd1330     Cd  0.77353907  0.56112782  0.24977994     1.59700
Cd1331     Cd  0.73747287  0.64334334  0.29438211     1.59600
O1332       O  0.79312840  0.63960120  0.24206608    -0.80000
O1333       O  0.74714882  0.56081976  0.28730694    -1.90500
Cd1334     Cd  0.77388882  0.52165132  0.34107111     1.59900
O1335       O  0.76526274  0.36620991  0.26898191    -0.80000
O1336       O  0.73978136  0.46069728  0.35580289    -0.78600
C1337       C  0.65530075  0.61341513  0.25650755     0.83900
C1338       C  0.70852311  0.49903994  0.17967341     0.83500
O1339       O  0.69335454  0.45407699  0.29498261    -0.77600
C1340       C  0.84177753  0.51035307  0.31882157     0.84400
O1341       O  0.66426896  0.56318114  0.25375666    -0.77700
C1342       C  0.78816485  0.35615311  0.25211483     0.84500
C1343       C  0.78722737  0.63556061  0.38803797     0.84800
O1344       O  0.76451954  0.66292907  0.35734540    -0.80100
C1345       C  0.55757764  0.64708114  0.18988987     0.04000
C1346       C  0.59549901  0.65651213  0.21191699    -0.12200
C1347       C  0.61557321  0.62064115  0.24436291     0.01500
C1348       C  0.59713266  0.57783723  0.25691315    -0.10700
C1349       C  0.55920727  0.56869586  0.23622475     0.04000
C1350       C  0.54083262  0.60144945  0.20195321    -0.10100
H1351       H  0.60999166  0.35358018  0.20066403     0.09600
H1352       H  0.61293173  0.54998729  0.28195769     0.07100
H1353       H  0.01388644  0.58712080  0.18500470     0.07000
C1354       C  0.80863733  0.47341777  0.19091449     0.04000
C1355       C  0.84700701  0.47787504  0.21049333    -0.12200
C1356       C  0.86669162  0.44578039  0.24556092     0.01500
C1357       C  0.84748357  0.40682849  0.26053548    -0.10700
C1358       C  0.80880995  0.40285106  0.24212677     0.04000
C1359       C  0.78998879  0.43759583  0.20875610    -0.10100
H1360       H  0.86179014  0.50473055  0.19713726     0.09600
H1361       H  0.86258567  0.37841313  0.28546537     0.07100
H1362       H  0.76100503  0.43173102  0.19640342     0.07000
O1363       O  0.55662271  0.50059032  0.28397345    -0.77600
C1364       C  0.54124558  0.45993716  0.39686981     0.83400
O1365       O  0.56870267  0.63674049  0.30614062    -0.78700
O1366       O  0.95838319  0.65046415  0.33840261    -0.80200
O1367       O  0.92308606  0.45675686  0.23675052    -0.80000
O1368       O  0.00618948  0.50816629  0.22722862    -0.78600
Zn1369     Zn  0.54545151  0.43992271  0.31515807     1.55700
O1370       O  0.92503625  0.42842391  0.29855310    -0.80000
Cd1371     Cd  0.97448424  0.43938137  0.23631286     1.59700
Cd1372     Cd  0.50853072  0.64770527  0.27796436     1.59600
O1373       O  0.95995720  0.38718409  0.18440508    -0.80000
O1374       O  0.50103448  0.39614825  0.28895518    -1.90500
Cd1375     Cd  0.97669964  0.39583513  0.32950453     1.59900
O1376       O  0.97913371  0.63625206  0.21223390    -0.80000
O1377       O  0.51166460  0.43074346  0.38776366    -0.78600
C1378       C  0.59360407  0.34211402  0.32093184     0.83900
C1379       C  0.53936955  0.52357504  0.24950267     0.83500
O1380       O  0.55525654  0.46857479  0.37060393    -0.77600
C1381       C  0.90737535  0.44522156  0.26161175     0.84400
O1382       O  0.58511300  0.39233569  0.32401340    -0.77700
C1383       C  0.96257361  0.33408017  0.18048924     0.84500
C1384       C  0.95956036  0.60153154  0.32406771     0.84800
O1385       O  0.97872878  0.59201610  0.30236944    -0.80100
C1386       C  0.68900404  0.66020101  0.39908831     0.04000
C1387       C  0.65388884  0.63984405  0.37254509    -0.12200
C1388       C  0.63413304  0.33489136  0.33547982     0.01500
C1389       C  0.65292045  0.37675814  0.32218206    -0.10700
C1390       C  0.68829254  0.39654828  0.34790986     0.04000
C1391       C  0.70257498  0.37640083  0.38838354    -0.10100
H1392       H  0.64042805  0.60696866  0.38300999     0.09600
H1393       H  0.63825914  0.39764404  0.29294374     0.07100
H1394       H  0.72234494  0.40068071  0.41227418     0.07000
C1395       C  0.94315114  0.64151177  0.13813068     0.04000
C1396       C  0.96063579  0.60704723  0.11783879    -0.12200
C1397       C  0.94127653  0.57421277  0.08341381     0.01500
C1398       C  0.90288383  0.57948294  0.06593747    -0.10700
C1399       C  0.88470672  0.61906528  0.08189494     0.04000
C1400       C  0.90495755  0.64925052  0.11815569    -0.10100
H1401       H  0.48932527  0.60383936  0.12644965     0.09600
H1402       H  0.88690945  0.55155878  0.04072462     0.07100
H1403       H  0.89053248  0.34133737  0.13279285     0.07000
O1404       O  0.80578548  0.48642773  0.12314358    -0.77600
C1405       C  0.79033146  0.44213384  0.99511081     0.83400
O1406       O  0.82113679  0.65147542  0.05533200    -0.78700
O1407       O  0.70485563  0.57976601  0.44186110    -0.80200
O1408       O  0.67580844  0.53225238  0.04658985    -0.80000
O1409       O  0.76193981  0.52790931  0.13736169    -0.78600
Zn1410     Zn  0.79572493  0.51523843  0.06699898     1.55700
O1411       O  0.67558411  0.49328098  0.48825345    -0.80000
Cd1412     Cd  0.72734066  0.56361768  0.08003371     1.59700
Cd1413     Cd  0.76228579  0.64345212  0.03213193     1.59600
O1414       O  0.70900613  0.64288053  0.08849391    -0.80000
O1415       O  0.75271949  0.56199035  0.04145041    -1.90500
Cd1416     Cd  0.72525722  0.52138154  0.48810484     1.59900
O1417       O  0.73426442  0.36745414  0.05718432    -0.80000
O1418       O  0.75898834  0.46281299  0.47215687    -0.78600
C1419       C  0.84498797  0.61192417  0.06975728     0.83900
C1420       C  0.79095978  0.49756763  0.14844730     0.83500
O1421       O  0.80521888  0.45558588  0.03297371    -0.77600
C1422       C  0.65888575  0.51046341  0.01089169     0.84400
O1423       O  0.83607172  0.56236710  0.07456901    -0.77700
C1424       C  0.71262003  0.35861249  0.07599277     0.84500
C1425       C  0.71057995  0.63203925  0.43882636     0.84800
O1426       O  0.73429172  0.66012199  0.46870459    -0.80100
C1427       C  0.56000541  0.48705776  0.43770706     0.04000
C1428       C  0.54300108  0.53017791  0.45137362    -0.12200
C1429       C  0.56148670  0.56157509  0.48668408     0.01500
C1430       C  0.59965678  0.55291591  0.00756178    -0.10700
C1431       C  0.61814057  0.51160380  0.99354835     0.04000
C1432       C  0.59788392  0.47840295  0.45897290    -0.10100
H1433       H  0.01551225  0.54251485  0.43516867     0.09600
H1434       H  0.61506125  0.57931191  0.03397537     0.07100
H1435       H  0.61189365  0.44784811  0.44721928     0.07000
C1436       C  0.80911681  0.66553185  0.42703615     0.04000
C1437       C  0.84504820  0.64810530  0.45204623    -0.12200
C1438       C  0.86535583  0.67755722  0.98881918     0.01500
C1439       C  0.84688609  0.38459993  0.00345910    -0.10700
C1440       C  0.81062237  0.40147902  0.97888749     0.04000
C1441       C  0.79512172  0.38035171  0.43860691    -0.10100
H1442       H  0.85810690  0.61498487  0.44127683     0.09600
H1443       H  0.86153413  0.40553655  0.03284513     0.07100
H1444       H  0.77363166  0.40253591  0.41568545     0.07000
C1445       C  0.69126388  0.47666970  0.13658590     0.04000
C1446       C  0.71006092  0.43910185  0.12011638    -0.12200
C1447       C  0.69191542  0.40602155  0.08540605     0.01500
C1448       C  0.65342611  0.41154854  0.06564461    -0.10700
C1449       C  0.63398949  0.45211486  0.07939759     0.04000
C1450       C  0.65322670  0.48409978  0.11492566    -0.10100
H1451       H  0.73857933  0.43052630  0.13466056     0.09600
H1452       H  0.63829974  0.38287888  0.04057729     0.07100
H1453       H  0.63802174  0.51054077  0.12802217     0.07000
O1454       O  0.55471861  0.66307591  0.12325280    -0.77600
C1455       C  0.54080370  0.60406598  0.00077441     0.83400
O1456       O  0.56977189  0.48426638  0.05216808    -0.78700
O1457       O  0.95894633  0.40756900  0.43422901    -0.80200
O1458       O  0.92307618  0.36351598  0.04334113    -0.80000
O1459       O  0.50928578  0.36691457  0.13720346    -0.78600
Zn1460     Zn  0.54449521  0.35177470  0.06640790     1.55700
O1461       O  0.92326610  0.32975871  0.48356287    -0.80000
Cd1462     Cd  0.97457540  0.39785470  0.07704960     1.59700
Cd1463     Cd  0.51002203  0.47740465  0.02771113     1.59600
O1464       O  0.95625321  0.47755452  0.08377024    -0.80000
O1465       O  0.50066919  0.39642165  0.03847895    -1.90500
Cd1466     Cd  0.97477273  0.35372000  0.48511499     1.59900
O1467       O  0.98273234  0.53546523  0.05365772    -0.80000
O1468       O  0.00941481  0.62327585  0.47630038    -0.78600
C1469       C  0.59392772  0.44493094  0.06642888     0.83900
C1470       C  0.53964172  0.33947154  0.14840241     0.83500
O1471       O  0.55544131  0.62121487  0.03767692    -0.77600
C1472       C  0.90635427  0.34328050  0.00689276     0.84400
O1473       O  0.58511511  0.39574655  0.07174312    -0.77700
C1474       C  0.96089309  0.52677527  0.07232689     0.84500
C1475       C  0.96249336  0.46062049  0.43105423     0.84800
O1476       O  0.98081626  0.49095978  0.46286370    -0.80100
C1477       C  0.94197925  0.48786150  0.88985730     0.04000
C1478       C  0.90348328  0.48198585  0.87160103    -0.12200
C1479       C  0.88265215  0.51177151  0.83544717     0.01500
C1480       C  0.90082755  0.55045649  0.81874187    -0.11500
C1481       C  0.93943049  0.55515432  0.83552119     0.04000
C1482       C  0.95909525  0.52172412  0.86916110    -0.10100
H1483       H  0.88963863  0.45557249  0.88630864     0.09600
H1484       H  0.88500359  0.57762656  0.79329376     0.07100
H1485       H  0.48772580  0.52358730  0.87703447     0.07000
O1486       O  0.69322317  0.48700916  0.70436777    -0.77600
C1487       C  0.70838499  0.43952363  0.83257535     0.83400
O1488       O  0.67920882  0.65333830  0.76930710    -0.78700
O1489       O  0.79222905  0.58273201  0.88629249    -0.80200
O1490       O  0.82455892  0.52768380  0.78195790    -0.80000
O1491       O  0.73823866  0.52822754  0.69189596    -0.78600
Zn1492     Zn  0.70367400  0.51437472  0.76137497     1.55700
O1493       O  0.82534948  0.49751815  0.84274410    -0.80000
Cd1494     Cd  0.77355225  0.56113100  0.74977428     1.59700
Cd1495     Cd  0.73748211  0.64334001  0.79437209     1.59600
O1496       O  0.79314383  0.63960549  0.74206637    -0.80000
O1497       O  0.74716241  0.56081653  0.78730115    -1.90500
Cd1498     Cd  0.77390130  0.52164795  0.84106528     1.59900
O1499       O  0.76526630  0.36621237  0.76896859    -0.80000
O1500       O  0.73979496  0.46069350  0.85580201    -0.78600
C1501       C  0.65531263  0.61340248  0.75650100     0.83900
C1502       C  0.70853461  0.49904267  0.67966840     0.83500
O1503       O  0.69337024  0.45407082  0.79498085    -0.77600
C1504       C  0.84178964  0.51034848  0.81881361     0.84400
O1505       O  0.66428299  0.56316941  0.75375066    -0.77700
C1506       C  0.78817386  0.35615757  0.75210859     0.84500
C1507       C  0.78723204  0.63555919  0.88802968     0.84800
O1508       O  0.76452538  0.66292899  0.85733557    -0.80100
C1509       C  0.55758782  0.64707531  0.68989134     0.04000
C1510       C  0.59550995  0.65650313  0.71191629    -0.12200
C1511       C  0.61558519  0.62062584  0.74435755     0.01500
C1512       C  0.59714544  0.57782001  0.75690670    -0.10700
C1513       C  0.55921953  0.56868256  0.73622145     0.04000
C1514       C  0.54084325  0.60144139  0.70195308    -0.10100
H1515       H  0.61000169  0.35357350  0.70066457     0.09600
H1516       H  0.61294529  0.54996601  0.78194842     0.07100
H1517       H  0.01389569  0.58711502  0.68500440     0.07000
C1518       C  0.80864965  0.47342877  0.69091514     0.04000
C1519       C  0.84701983  0.47788224  0.71049437    -0.12200
C1520       C  0.86670316  0.44578147  0.74555933     0.01500
C1521       C  0.84749337  0.40682945  0.76053115    -0.10700
C1522       C  0.80881962  0.40285696  0.74212311     0.04000
C1523       C  0.78999996  0.43760648  0.70875489    -0.10100
H1524       H  0.86180410  0.50473788  0.69713975     0.09600
H1525       H  0.86259421  0.37841011  0.78545883     0.07100
H1526       H  0.76101568  0.43174287  0.69640009     0.07000
O1527       O  0.55663510  0.50057919  0.78397169    -0.77600
C1528       C  0.54125245  0.45993062  0.89686888     0.83400
O1529       O  0.56871539  0.63673395  0.80613124    -0.78700
O1530       O  0.95839787  0.65044702  0.83839870    -0.80200
O1531       O  0.92309898  0.45676252  0.73675258    -0.80000
O1532       O  0.00620137  0.50815616  0.72722721    -0.78600
Zn1533     Zn  0.54546378  0.43991286  0.81515791     1.55700
O1534       O  0.92504643  0.42840544  0.79854858    -0.80000
Cd1535     Cd  0.97449493  0.43937642  0.73631379     1.59700
Cd1536     Cd  0.50854374  0.64769718  0.77796004     1.59600
O1537       O  0.95996237  0.38718171  0.68440510    -0.80000
O1538       O  0.50104661  0.39613871  0.78895408    -1.90500
Cd1539     Cd  0.97671105  0.39582061  0.82950236     1.59900
O1540       O  0.97914395  0.63624955  0.71223023    -0.80000
O1541       O  0.51167275  0.43073339  0.88776181    -0.78600
C1542       C  0.59361664  0.34210661  0.82092441     0.83900
C1543       C  0.53938191  0.52356328  0.74950053     0.83500
O1544       O  0.55526559  0.46856693  0.87060443    -0.77600
C1545       C  0.90738693  0.44521690  0.76161058     0.84400
O1546       O  0.58512608  0.39232723  0.82401080    -0.77700
C1547       C  0.96258064  0.33407868  0.68048738     0.84500
C1548       C  0.95957550  0.60151538  0.82406251     0.84800
O1549       O  0.97874391  0.59200222  0.80236389    -0.80100
C1550       C  0.68900946  0.66020415  0.89908792     0.04000
C1551       C  0.65389758  0.63983842  0.87253843    -0.12200
C1552       C  0.63414524  0.33488299  0.83547173     0.01500
C1553       C  0.65293300  0.37675019  0.82217534    -0.10700
C1554       C  0.68830375  0.39654659  0.84790845     0.04000
C1555       C  0.70257592  0.37640094  0.88838000    -0.10100
H1556       H  0.64043697  0.60696198  0.88300128     0.09600
H1557       H  0.63827415  0.39763316  0.79293570     0.07100
H1558       H  0.72235586  0.40070035  0.91228652     0.07000
C1559       C  0.94315809  0.64151236  0.63812868     0.04000
C1560       C  0.96064316  0.60704820  0.61783791    -0.12200
C1561       C  0.94128525  0.57421490  0.58341229     0.01500
C1562       C  0.90289234  0.57948585  0.56593405    -0.10700
C1563       C  0.88471445  0.61906865  0.58189042     0.04000
C1564       C  0.90496450  0.64925263  0.61815227    -0.10100
H1565       H  0.48933303  0.60384002  0.62645101     0.09600
H1566       H  0.88691860  0.55156255  0.54072047     0.07100
H1567       H  0.89053916  0.34133859  0.63278885     0.07000
O1568       O  0.80579958  0.48644113  0.62314522    -0.77600
C1569       C  0.79033614  0.44214268  0.49511107     0.83400
O1570       O  0.82114352  0.65147792  0.55532556    -0.78700
O1571       O  0.70485860  0.57977037  0.94186204    -0.80200
O1572       O  0.67580966  0.53225850  0.54658727    -0.80000
O1573       O  0.76194912  0.52791264  0.63735952    -0.78600
Zn1574     Zn  0.79573275  0.51524618  0.56699841     1.55700
O1575       O  0.67558394  0.49328306  0.98825363    -0.80000
Cd1576     Cd  0.72734599  0.56361725  0.58003180     1.59700
Cd1577     Cd  0.76229207  0.64344997  0.53212679     1.59600
O1578       O  0.70901762  0.64288108  0.58849579    -0.80000
O1579       O  0.75272424  0.56199101  0.54144843    -1.90500
Cd1580     Cd  0.72525612  0.52138335  0.98810502     1.59900
O1581       O  0.73427136  0.36745116  0.55717878    -0.80000
O1582       O  0.75898462  0.46280935  0.97215524    -0.78600
C1583       C  0.84499531  0.61192777  0.56975147     0.83900
C1584       C  0.79097228  0.49757797  0.64844769     0.83500
O1585       O  0.80522525  0.45559505  0.53297443    -0.77600
C1586       C  0.65888579  0.51046674  0.51088999     0.84400
O1587       O  0.83607920  0.56237157  0.57456433    -0.77700
C1588       C  0.71263021  0.35861153  0.57599147     0.84500
C1589       C  0.71058096  0.63204352  0.93882782     0.84800
O1590       O  0.73428873  0.66012883  0.96870915    -0.80100
C1591       C  0.56000885  0.48705466  0.93770613     0.04000
C1592       C  0.54300303  0.53017427  0.95137280    -0.12200
C1593       C  0.56148728  0.56157053  0.98668486     0.01500
C1594       C  0.59965664  0.55292134  0.50755990    -0.10700
C1595       C  0.61813977  0.51160797  0.49354661     0.04000
C1596       C  0.59788656  0.47840004  0.95897395    -0.10100
H1597       H  0.01551531  0.54251124  0.93516931     0.09600
H1598       H  0.61506167  0.57931821  0.53397264     0.07100
H1599       H  0.61189754  0.44784570  0.94722125     0.07000
C1600       C  0.80911605  0.66552955  0.92702954     0.04000
C1601       C  0.84504919  0.64810447  0.95204047    -0.12200
C1602       C  0.86535925  0.67756330  0.48882250     0.01500
C1603       C  0.84689106  0.38461231  0.50346021    -0.10700
C1604       C  0.81062913  0.40149017  0.47888974     0.04000
C1605       C  0.79512154  0.38033604  0.93860921    -0.10100
H1606       H  0.85811036  0.61499090  0.94126901     0.09600
H1607       H  0.86154037  0.40555037  0.53284571     0.07100
H1608       H  0.77360746  0.40253164  0.91567078     0.07000
C1609       C  0.69127474  0.47667288  0.63658090     0.04000
C1610       C  0.71007215  0.43910510  0.62011188    -0.12200
C1611       C  0.69192598  0.40602096  0.58540379     0.01500
C1612       C  0.65343630  0.41154374  0.56564444    -0.10700
C1613       C  0.63399898  0.45210907  0.57939669     0.04000
C1614       C  0.65323655  0.48409814  0.61492293    -0.10100
H1615       H  0.73859095  0.43053128  0.63465593     0.09600
H1616       H  0.63831007  0.38287092  0.54057871     0.07100
H1617       H  0.63803190  0.51053797  0.62801978     0.07000
O1618       O  0.55472514  0.66307200  0.62325336    -0.77600
C1619       C  0.54080354  0.60406972  0.50077338     0.83400
O1620       O  0.56978068  0.48425815  0.55216481    -0.78700
O1621       O  0.95895168  0.40756328  0.93422849    -0.80200
O1622       O  0.92308203  0.36351932  0.54334381    -0.80000
O1623       O  0.50929566  0.36691532  0.63720799    -0.78600
Zn1624     Zn  0.54450059  0.35177403  0.56640947     1.55700
O1625       O  0.92326352  0.32975719  0.98356091    -0.80000
Cd1626     Cd  0.97458313  0.39785517  0.57705296     1.59700
Cd1627     Cd  0.51003002  0.47740251  0.52771208     1.59600
O1628       O  0.95626084  0.47755622  0.58377004    -0.80000
O1629       O  0.50067487  0.39642181  0.53848049    -1.90500
Cd1630     Cd  0.97477145  0.35371548  0.98511488     1.59900
O1631       O  0.98274442  0.53546564  0.55366145    -0.80000
O1632       O  0.00941388  0.62326898  0.97630208    -0.78600
C1633       C  0.59393694  0.44492371  0.56642834     0.83900
C1634       C  0.53965044  0.33946904  0.64840498     0.83500
O1635       O  0.55544061  0.62121444  0.53767669    -0.77600
C1636       C  0.90635803  0.34328423  0.50689540     0.84400
O1637       O  0.58512444  0.39574004  0.57174531    -0.77700
C1638       C  0.96090247  0.52677659  0.57232740     0.84500
C1639       C  0.96249858  0.46061451  0.93105177     0.84800
O1640       O  0.98081623  0.49095754  0.96286112    -0.80100
C1641       C  0.94196986  0.82120532  0.38986255     0.04000
C1642       C  0.90347349  0.81532977  0.37160891    -0.12200
C1643       C  0.88264013  0.84511573  0.33545618     0.01500
C1644       C  0.90081314  0.88380525  0.31875085    -0.11500
C1645       C  0.93941634  0.88850421  0.33552844     0.04000
C1646       C  0.95908316  0.85507055  0.36916530    -0.10100
H1647       H  0.88963032  0.78891330  0.38631708     0.09600
H1648       H  0.88498794  0.91097517  0.29330449     0.07100
H1649       H  0.48771326  0.85692920  0.37703466     0.07000
O1650       O  0.69320570  0.82035391  0.20436977    -0.77600
C1651       C  0.70837197  0.77286129  0.33257726     0.83400
O1652       O  0.67919879  0.98668209  0.26931476    -0.78700
O1653       O  0.79222262  0.91606496  0.38630174    -0.80200
O1654       O  0.82454657  0.86101996  0.28196571    -0.80000
O1655       O  0.73823134  0.86154773  0.19190338    -0.78600
Zn1656     Zn  0.70365779  0.84771693  0.26137866     1.55700
O1657       O  0.82533690  0.83085263  0.34275107    -0.80000
Cd1658     Cd  0.77353903  0.89446118  0.24977996     1.59700
Cd1659     Cd  0.73747287  0.97667670  0.29438214     1.59600
O1660       O  0.79312834  0.97293454  0.24206601    -0.80000
O1661       O  0.74714884  0.89415315  0.28730698    -1.90500
Cd1662     Cd  0.77388876  0.85498467  0.34107113     1.59900
O1663       O  0.76526293  0.69954310  0.26898200    -0.80000
O1664       O  0.73978137  0.79403058  0.35580291    -0.78600
C1665       C  0.65530074  0.94674849  0.25650763     0.83900
C1666       C  0.70852312  0.83237320  0.17967352     0.83500
O1667       O  0.69335455  0.78741027  0.29498264    -0.77600
C1668       C  0.84177745  0.84368640  0.31882158     0.84400
O1669       O  0.66426901  0.89651460  0.25375658    -0.77700
C1670       C  0.78816506  0.68948634  0.25211498     0.84500
C1671       C  0.78722745  0.96889391  0.38803802     0.84800
O1672       O  0.76451968  0.99626243  0.35734545    -0.80100
C1673       C  0.55757769  0.98041448  0.18988969     0.04000
C1674       C  0.59549913  0.98984558  0.21191686    -0.12200
C1675       C  0.61557317  0.95397449  0.24436281     0.01500
C1676       C  0.59713265  0.91117063  0.25691313    -0.10700
C1677       C  0.55920726  0.90202921  0.23622460     0.04000
C1678       C  0.54083271  0.93478287  0.20195312    -0.10100
H1679       H  0.60999168  0.68691370  0.20066408     0.09600
H1680       H  0.61293168  0.88332086  0.28195746     0.07100
H1681       H  0.01388686  0.92045432  0.18500538     0.07000
C1682       C  0.80863739  0.80675092  0.19091466     0.04000
C1683       C  0.84700702  0.81120807  0.21049362    -0.12200
C1684       C  0.86669187  0.77911372  0.24556118     0.01500
C1685       C  0.84748394  0.74016165  0.26053593    -0.10700
C1686       C  0.80881022  0.73618434  0.24212700     0.04000
C1687       C  0.78998889  0.77092916  0.20875640    -0.10100
H1688       H  0.86179024  0.83806405  0.19713729     0.09600
H1689       H  0.86258594  0.71174688  0.28546572     0.07100
H1690       H  0.76100526  0.76506479  0.19640400     0.07000
O1691       O  0.55662280  0.83392364  0.28397333    -0.77600
C1692       C  0.54124553  0.79327059  0.39686970     0.83400
O1693       O  0.56870267  0.97007328  0.30614083    -0.78700
O1694       O  0.95838310  0.98379742  0.33840247    -0.80200
O1695       O  0.92308625  0.79009010  0.23675057    -0.80000
O1696       O  0.00618946  0.84149945  0.22722854    -0.78600
Zn1697     Zn  0.54545151  0.77325607  0.31515796     1.55700
O1698       O  0.92503660  0.76175763  0.29855328    -0.80000
Cd1699     Cd  0.97448435  0.77271450  0.23631286     1.59700
Cd1700     Cd  0.50853077  0.98103816  0.27796437     1.59600
O1701       O  0.95995722  0.72051724  0.18440507    -0.80000
O1702       O  0.50103446  0.72948160  0.28895515    -1.90500
Cd1703     Cd  0.97669979  0.72916861  0.32950454     1.59900
O1704       O  0.97913362  0.96958547  0.21223383    -0.80000
O1705       O  0.51166466  0.76407674  0.38776358    -0.78600
C1706       C  0.59360408  0.67544734  0.32093207     0.83900
C1707       C  0.53936961  0.85690839  0.24950260     0.83500
O1708       O  0.55525648  0.80190814  0.37060381    -0.77600
C1709       C  0.90737562  0.77855497  0.26161195     0.84400
O1710       O  0.58511303  0.72566906  0.32401335    -0.77700
C1711       C  0.96257372  0.66741326  0.18048928     0.84500
C1712       C  0.95956021  0.93486480  0.32406754     0.84800
O1713       O  0.97872868  0.92534931  0.30236933    -0.80100
C1714       C  0.68900397  0.99353375  0.39908843     0.04000
C1715       C  0.65388866  0.97317663  0.37254530    -0.12200
C1716       C  0.63413306  0.66822473  0.33548000     0.01500
C1717       C  0.65292037  0.71009162  0.32218200    -0.10700
C1718       C  0.68829251  0.72988168  0.34790990     0.04000
C1719       C  0.70257520  0.70973425  0.38838366    -0.10100
H1720       H  0.64042791  0.94030156  0.38301005     0.09600
H1721       H  0.63825920  0.73097715  0.29294408     0.07100
H1722       H  0.72234461  0.73401368  0.41227384     0.07000
C1723       C  0.94315102  0.97484504  0.13813065     0.04000
C1724       C  0.96063591  0.94038050  0.11783886    -0.12200
C1725       C  0.94127645  0.90754605  0.08341380     0.01500
C1726       C  0.90288374  0.91281611  0.06593750    -0.10700
C1727       C  0.88470664  0.95239843  0.08189504     0.04000
C1728       C  0.90495743  0.98258375  0.11815579    -0.10100
H1729       H  0.48932625  0.93717341  0.12645009     0.09600
H1730       H  0.88690938  0.88489253  0.04072444     0.07100
H1731       H  0.89053261  0.67467029  0.13279307     0.07000
O1732       O  0.80578549  0.81976089  0.12314382    -0.77600
C1733       C  0.79033149  0.77546686  0.99511104     0.83400
O1734       O  0.82113674  0.98480834  0.05533204    -0.78700
O1735       O  0.70485549  0.91309896  0.44186132    -0.80200
O1736       O  0.67580841  0.86558566  0.04659007    -0.80000
O1737       O  0.76193977  0.86124252  0.13736185    -0.78600
Zn1738     Zn  0.79572491  0.84857143  0.06699913     1.55700
O1739       O  0.67558401  0.82661372  0.48825370    -0.80000
Cd1740     Cd  0.72734063  0.89695085  0.08003391     1.59700
Cd1741     Cd  0.76228571  0.97678504  0.03213197     1.59600
O1742       O  0.70900608  0.97621365  0.08849399    -0.80000
O1743       O  0.75271942  0.89532340  0.04145056    -1.90500
Cd1744     Cd  0.72525709  0.85471446  0.48810508     1.59900
O1745       O  0.73426448  0.70078726  0.05718434    -0.80000
O1746       O  0.75898823  0.79614613  0.47215716    -0.78600
C1747       C  0.84498796  0.94525721  0.06975745     0.83900
C1748       C  0.79095969  0.83090071  0.14844748     0.83500
O1749       O  0.80521900  0.78891879  0.03297404    -0.77600
C1750       C  0.65888575  0.84379652  0.01089191     0.84400
O1751       O  0.83607175  0.89570014  0.07456919    -0.77700
C1752       C  0.71262018  0.69194581  0.07599291     0.84500
C1753       C  0.71057983  0.96537208  0.43882649     0.84800
O1754       O  0.73429174  0.99345485  0.46870461    -0.80100
C1755       C  0.56000539  0.82039117  0.43770701     0.04000
C1756       C  0.54300069  0.86351146  0.45137324    -0.12200
C1757       C  0.56148655  0.89490844  0.48668396     0.01500
C1758       C  0.59965672  0.88624899  0.00756171    -0.10700
C1759       C  0.61814056  0.84493696  0.99354845     0.04000
C1760       C  0.59788376  0.81173641  0.45897309    -0.10100
H1761       H  0.01551193  0.87584766  0.43516873     0.09600
H1762       H  0.61506128  0.91264468  0.03397581     0.07100
H1763       H  0.61189377  0.78118147  0.44721932     0.07000
C1764       C  0.80911682  0.99886512  0.42703621     0.04000
C1765       C  0.84504812  0.98143834  0.45204643    -0.12200
C1766       C  0.86535570  0.01089059  0.98881936     0.01500
C1767       C  0.84688603  0.71793307  0.00345914    -0.10700
C1768       C  0.81062239  0.73481209  0.97888766     0.04000
C1769       C  0.79512161  0.71368515  0.43860675    -0.10100
H1770       H  0.85810678  0.94831778  0.44127707     0.09600
H1771       H  0.86153428  0.73887014  0.03284520     0.07100
H1772       H  0.77363218  0.73586934  0.41568566     0.07000
C1773       C  0.69126392  0.81000280  0.13658613     0.04000
C1774       C  0.71006104  0.77243508  0.12011666    -0.12200
C1775       C  0.69191559  0.73935491  0.08540624     0.01500
C1776       C  0.65342635  0.74488212  0.06564484    -0.10700
C1777       C  0.63398963  0.78544820  0.07939774     0.04000
C1778       C  0.65322673  0.81743322  0.11492588    -0.10100
H1779       H  0.73857924  0.76385875  0.13466106     0.09600
H1780       H  0.63829992  0.71621262  0.04057706     0.07100
H1781       H  0.63802188  0.84387426  0.12802207     0.07000
O1782       O  0.55471860  0.99640944  0.12325257    -0.77600
C1783       C  0.54080380  0.93739944  0.00077432     0.83400
O1784       O  0.56977199  0.81759962  0.05216804    -0.78700
O1785       O  0.95894626  0.74090231  0.43422900    -0.80200
O1786       O  0.92307635  0.69684904  0.04334130    -0.80000
O1787       O  0.50928568  0.70024815  0.13720355    -0.78600
Zn1788     Zn  0.54449525  0.68510802  0.06640809     1.55700
O1789       O  0.92326606  0.66309203  0.48356287    -0.80000
Cd1790     Cd  0.97457552  0.73118803  0.07704977     1.59700
Cd1791     Cd  0.51002213  0.81073792  0.02771116     1.59600
O1792       O  0.95625328  0.81088787  0.08377041    -0.80000
O1793       O  0.50066917  0.72975499  0.03847902    -1.90500
Cd1794     Cd  0.97477268  0.68705330  0.48511500     1.59900
O1795       O  0.98273225  0.86879864  0.05365767    -0.80000
O1796       O  0.00941470  0.95660929  0.47630043    -0.78600
C1797       C  0.59392783  0.77826420  0.06642890     0.83900
C1798       C  0.53964168  0.67280524  0.14840258     0.83500
O1799       O  0.55544136  0.95454834  0.03767685    -0.77600
C1800       C  0.90635436  0.67661365  0.00689293     0.84400
O1801       O  0.58511524  0.72907974  0.07174322    -0.77700
C1802       C  0.96089303  0.86010861  0.07232689     0.84500
C1803       C  0.96249327  0.79395381  0.43105423     0.84800
O1804       O  0.98081615  0.82429309  0.46286371    -0.80100
C1805       C  0.94197918  0.82119484  0.88985722     0.04000
C1806       C  0.90348315  0.81531914  0.87160097    -0.12200
C1807       C  0.88265201  0.84510483  0.83544713     0.01500
C1808       C  0.90082735  0.88378984  0.81874179    -0.11500
C1809       C  0.93943031  0.88848765  0.83552111     0.04000
C1810       C  0.95909487  0.85505757  0.86916092    -0.10100
H1811       H  0.88963854  0.78890580  0.88630864     0.09600
H1812       H  0.88500340  0.91095992  0.79329373     0.07100
H1813       H  0.48772573  0.85692001  0.87703436     0.07000
O1814       O  0.69322310  0.82034237  0.70436784    -0.77600
C1815       C  0.70838494  0.77285720  0.83257544     0.83400
O1816       O  0.67920880  0.98667155  0.76930711    -0.78700
O1817       O  0.79222897  0.91606560  0.88629258    -0.80200
O1818       O  0.82455883  0.86101708  0.78195783    -0.80000
O1819       O  0.73823853  0.86156083  0.69189598    -0.78600
Zn1820     Zn  0.70367393  0.84770810  0.76137494     1.55700
O1821       O  0.82534941  0.83085179  0.84274415    -0.80000
Cd1822     Cd  0.77355220  0.89446437  0.74977424     1.59700
Cd1823     Cd  0.73748212  0.97667339  0.79437202     1.59600
O1824       O  0.79314375  0.97293894  0.74206640    -0.80000
O1825       O  0.74716237  0.89414994  0.78730108    -1.90500
Cd1826     Cd  0.77390125  0.85498152  0.84106531     1.59900
O1827       O  0.76526640  0.69954578  0.76896858    -0.80000
O1828       O  0.73979505  0.79402689  0.85580209    -0.78600
C1829       C  0.65531253  0.94673573  0.75650096     0.83900
C1830       C  0.70853454  0.83237587  0.67966844     0.83500
O1831       O  0.69337016  0.78740432  0.79498096    -0.77600
C1832       C  0.84178954  0.84368195  0.81881361     0.84400
O1833       O  0.66428291  0.89650280  0.75375043    -0.77700
C1834       C  0.78817400  0.68949093  0.75210869     0.84500
C1835       C  0.78723208  0.96889283  0.88802968     0.84800
O1836       O  0.76452543  0.99626268  0.85733549    -0.80100
C1837       C  0.55758758  0.98040839  0.68989119     0.04000
C1838       C  0.59550951  0.98983589  0.71191638    -0.12200
C1839       C  0.61558504  0.95395906  0.74435752     0.01500
C1840       C  0.59714531  0.91115316  0.75690661    -0.10700
C1841       C  0.55921947  0.90201577  0.73622127     0.04000
C1842       C  0.54084288  0.93477436  0.70195272    -0.10100
H1843       H  0.61000198  0.68690679  0.70066458     0.09600
H1844       H  0.61294529  0.88329920  0.78194814     0.07100
H1845       H  0.01389610  0.92044801  0.68500491     0.07000
C1846       C  0.80864963  0.80676195  0.69091529     0.04000
C1847       C  0.84701960  0.81121538  0.71049455    -0.12200
C1848       C  0.86670317  0.77911468  0.74555938     0.01500
C1849       C  0.84749338  0.74016260  0.76053122    -0.10700
C1850       C  0.80881973  0.73619023  0.74212326     0.04000
C1851       C  0.78999982  0.77093972  0.70875501    -0.10100
H1852       H  0.86180401  0.83807194  0.69713991     0.09600
H1853       H  0.86259434  0.71174312  0.78545886     0.07100
H1854       H  0.76101610  0.76507616  0.69640040     0.07000
O1855       O  0.55663518  0.83391237  0.78397160    -0.77600
C1856       C  0.54125257  0.79326389  0.89686881     0.83400
O1857       O  0.56871529  0.97006663  0.80613129    -0.78700
O1858       O  0.95839761  0.98378029  0.83839857    -0.80200
O1859       O  0.92309897  0.79009578  0.73675254    -0.80000
O1860       O  0.00620142  0.84148953  0.72722723    -0.78600
Zn1861     Zn  0.54546386  0.77324619  0.81515788     1.55700
O1862       O  0.92504662  0.76173905  0.79854867    -0.80000
Cd1863     Cd  0.97449503  0.77270976  0.73631380     1.59700
Cd1864     Cd  0.50854364  0.98103008  0.77796000     1.59600
O1865       O  0.95996255  0.72051495  0.68440517    -0.80000
O1866       O  0.50104662  0.72947207  0.78895415    -1.90500
Cd1867     Cd  0.97671122  0.72915421  0.82950239     1.59900
O1868       O  0.97914387  0.96958254  0.71223031    -0.80000
O1869       O  0.51167285  0.76406672  0.88776173    -0.78600
C1870       C  0.59361668  0.67544005  0.82092459     0.83900
C1871       C  0.53938192  0.85689657  0.74950044     0.83500
O1872       O  0.55526570  0.80190033  0.87060436    -0.77600
C1873       C  0.90738697  0.77855034  0.76161067     0.84400
O1874       O  0.58512621  0.72566068  0.82401082    -0.77700
C1875       C  0.96258079  0.66741196  0.68048739     0.84500
C1876       C  0.95957536  0.93484867  0.82406250     0.84800
O1877       O  0.97874384  0.92533557  0.80236394    -0.80100
C1878       C  0.68900951  0.99353684  0.89908793     0.04000
C1879       C  0.65389768  0.97317144  0.87253842    -0.12200
C1880       C  0.63414523  0.66821644  0.83547186     0.01500
C1881       C  0.65293289  0.71008374  0.82217524    -0.10700
C1882       C  0.68830380  0.72987986  0.84790846     0.04000
C1883       C  0.70257584  0.70973421  0.88837998    -0.10100
H1884       H  0.64043674  0.94029466  0.88300129     0.09600
H1885       H  0.63827441  0.73096604  0.79293577     0.07100
H1886       H  0.72235561  0.73403359  0.91228646     0.07000
C1887       C  0.94315819  0.97484536  0.63812860     0.04000
C1888       C  0.96064365  0.94038133  0.61783788    -0.12200
C1889       C  0.94128528  0.90754802  0.58341219     0.01500
C1890       C  0.90289237  0.91281856  0.56593399    -0.10700
C1891       C  0.88471446  0.95240137  0.58189043     0.04000
C1892       C  0.90496471  0.98258538  0.61815221    -0.10100
H1893       H  0.48933366  0.93717365  0.62645095     0.09600
H1894       H  0.88691869  0.88489479  0.54072094     0.07100
H1895       H  0.89053938  0.67467254  0.63278879     0.07000
O1896       O  0.80579952  0.81977409  0.62314539    -0.77600
C1897       C  0.79033601  0.77547573  0.49511111     0.83400
O1898       O  0.82114348  0.98481079  0.55532565    -0.78700
O1899       O  0.70485843  0.91310312  0.94186209    -0.80200
O1900       O  0.67580960  0.86559144  0.54658749    -0.80000
O1901       O  0.76194922  0.86124588  0.63735976    -0.78600
Zn1902     Zn  0.79573267  0.84857911  0.56699853     1.55700
O1903       O  0.67558402  0.82661597  0.98825404    -0.80000
Cd1904     Cd  0.72734596  0.89695023  0.58003200     1.59700
Cd1905     Cd  0.76229199  0.97678288  0.53212680     1.59600
O1906       O  0.70901755  0.97621406  0.58849596    -0.80000
O1907       O  0.75272411  0.89532400  0.54144855    -1.90500
Cd1908     Cd  0.72525612  0.85471623  0.98810529     1.59900
O1909       O  0.73427146  0.70078452  0.55717889    -0.80000
O1910       O  0.75898471  0.79614236  0.97215562    -0.78600
C1911       C  0.84499526  0.94526054  0.56975144     0.83900
C1912       C  0.79097225  0.83091111  0.64844790     0.83500
O1913       O  0.80522518  0.78892790  0.53297453    -0.77600
C1914       C  0.65888569  0.84379977  0.51089022     0.84400
O1915       O  0.83607910  0.89570442  0.57456442    -0.77700
C1916       C  0.71263040  0.69194485  0.57599167     0.84500
C1917       C  0.71058094  0.96537630  0.93882784     0.84800
O1918       O  0.73428869  0.99346164  0.96870913    -0.80100
C1919       C  0.56000891  0.82038797  0.93770605     0.04000
C1920       C  0.54300306  0.86350763  0.95137266    -0.12200
C1921       C  0.56148729  0.89490373  0.98668487     0.01500
C1922       C  0.59965642  0.88625467  0.50755988    -0.10700
C1923       C  0.61813968  0.84494124  0.49354676     0.04000
C1924       C  0.59788659  0.81173324  0.95897397    -0.10100
H1925       H  0.01551489  0.87584511  0.93516860     0.09600
H1926       H  0.61506142  0.91265142  0.53397272     0.07100
H1927       H  0.61189770  0.78117952  0.94722103     0.07000
C1928       C  0.80911605  0.99886312  0.92702962     0.04000
C1929       C  0.84504916  0.98143772  0.95204067    -0.12200
C1930       C  0.86535920  0.01089658  0.48882262     0.01500
C1931       C  0.84689082  0.71794516  0.50345999    -0.10700
C1932       C  0.81062902  0.73482322  0.47888976     0.04000
C1933       C  0.79512139  0.71366975  0.93860898    -0.10100
H1934       H  0.85811024  0.94832404  0.94126946     0.09600
H1935       H  0.86154030  0.73888342  0.53284599     0.07100
H1936       H  0.77360805  0.73586483  0.91567128     0.07000
C1937       C  0.69127472  0.81000605  0.63658094     0.04000
C1938       C  0.71007220  0.77243822  0.62011196    -0.12200
C1939       C  0.69192606  0.73935410  0.58540387     0.01500
C1940       C  0.65343643  0.74487674  0.56564444    -0.10700
C1941       C  0.63399905  0.78544206  0.57939671     0.04000
C1942       C  0.65323661  0.81743109  0.61492292    -0.10100
H1943       H  0.73859081  0.76386441  0.63465584     0.09600
H1944       H  0.63831028  0.71620399  0.54057860     0.07100
H1945       H  0.63803174  0.84387077  0.62801997     0.07000
O1946       O  0.55472510  0.99640541  0.62325333    -0.77600
C1947       C  0.54080337  0.93740325  0.50077315     0.83400
O1948       O  0.56978070  0.81759127  0.55216493    -0.78700
O1949       O  0.95895151  0.74089669  0.93422841    -0.80200
O1950       O  0.92308195  0.69685262  0.54334380    -0.80000
O1951       O  0.50929564  0.70024872  0.63720798    -0.78600
Zn1952     Zn  0.54450068  0.68510740  0.56640959     1.55700
O1953       O  0.92326360  0.66309065  0.98356100    -0.80000
Cd1954     Cd  0.97458311  0.73118844  0.57705297     1.59700
Cd1955     Cd  0.51003006  0.81073580  0.52771224     1.59600
O1956       O  0.95626085  0.81088946  0.58376996    -0.80000
O1957       O  0.50067488  0.72975511  0.53848074    -1.90500
Cd1958     Cd  0.97477143  0.68704899  0.98511491     1.59900
O1959       O  0.98274447  0.86879896  0.55366149    -0.80000
O1960       O  0.00941383  0.95660242  0.97630220    -0.78600
C1961       C  0.59393700  0.77825683  0.56642829     0.83900
C1962       C  0.53965055  0.67280272  0.64840501     0.83500
O1963       O  0.55544048  0.95454800  0.53767651    -0.77600
C1964       C  0.90635796  0.67661745  0.50689534     0.84400
O1965       O  0.58512452  0.72907325  0.57174529    -0.77700
C1966       C  0.96090255  0.86010983  0.57232741     0.84500
C1967       C  0.96249857  0.79394786  0.93105168     0.84800
O1968       O  0.98081627  0.82429084  0.96286108    -0.80100
loop_ 
_geom_bond_atom_site_label_1 
_geom_bond_atom_site_label_2 
_geom_bond_distance 
_geom_bond_site_symmetry_2 
_ccdc_geom_bond_type 
C1            C2   1.403       .  A
C1            C6   1.417       .  A
C1          C163   1.504       .  S
C2            C3   1.408       .  A
C2            H7   1.084       .  S
C3            C4   1.422       .  A
C3           C28   1.483       .  S
C4            C5   1.404       .  A
C4            H8   1.084       .  S
C5            C6   1.386       .  A
C5           C72   1.498       .  S
C6          H993   1.052       .  S
H9          C990   1.052       .  S
O10          C26   1.267       .  A
O10         Zn16   1.985       .  S
C11          C78   1.511       .  S
C11          O27   1.268       .  A
C11          O24   1.286       .  A
O12          C25   1.283       .  A
O12         Cd19   2.128       .  S
O13          C31   1.273       .  A
O13         Cd22   2.054       .  S
O14          C28   1.275       .  A
O14         Cd18   2.046       .  S
O15          C26   1.278       .  A
O15         Cd18   2.109       .  S
Zn16         O27   1.995       .  S
Zn16         O29   1.872       .  S
Zn16         O21   1.934       .  S
O17          C28   1.281       .  A
O17         Cd22   2.085       .  S
Cd18         O20   2.070       .  S
Cd18         O21   1.970       .  S
Cd19         O32   2.095       .  S
Cd19        O351   2.127       .  S
Cd19         O21   2.026       .  S
O20         C358   1.269       .  A
O21         Cd22   2.001       .  S
Cd22         O24   2.166       .  S
O23          C30   1.279       .  A
O23        Cd675   2.127   1_545  S
C25          C35   1.463       .  S
C25          O29   1.257       .  A
C26         C133   1.490       .  S
C30          C46   1.493       .  S
C30         O676   1.269   1_545  A
C31         C124   1.480       .  S
C31          O32   1.280       .  A
C33          C34   1.405       .  A
C33          C38   1.414       .  A
C33         C486   1.483       .  S
C34          C35   1.398       .  A
C34         H367   1.084       .  S
C35          C36   1.414       .  A
C36          C37   1.399       .  A
C36          H40   1.085       .  S
C37          C38   1.380       .  A
C37          C67   1.501       .  S
C38        H1025   1.049       .  S
H39         C690   1.084   1_545  S
H41        C1022   1.049       .  S
C42          C43   1.399       .  A
C42          C47   1.418       .  A
C42         C108   1.495       .  S
C43          C44   1.401       .  A
C43          H48   1.085       .  S
C44          C45   1.418       .  A
C44          C69   1.477       .  S
C45          C46   1.406       .  A
C45          H49   1.084       .  S
C46          C47   1.391       .  A
C47          H50   1.060       .  S
O51          C67   1.261       .  A
O51         Zn57   1.960       .  S
C52         C115   1.476       .  S
C52          O68   1.262       .  A
C52          O65   1.281       .  A
O53         C394   1.291       .  A
O53         Cd60   2.200       .  S
O54          C72   1.270       .  A
O54        Cd391   2.066       .  S
O55          C69   1.281       .  A
O55         Cd59   2.072       .  S
O56        C1051   1.285       .  A
O56         Cd59   2.149       .  S
Zn57         O68   1.949       .  S
Zn57         O70   1.855       .  S
Zn57         O62   1.926       .  S
O58          C69   1.275       .  A
O58         Cd63   2.052       .  S
Cd59         O61   2.084       .  S
Cd59       O1046   2.018       .  S
Cd60       O1048   2.156   1_455  S
Cd60       O1057   2.153   1_455  S
Cd60        O390   2.019       .  S
O61          C71   1.274       .  A
O62       Cd1043   2.018   1_455  S
O62        Cd716   2.019   1_545  S
O62       Cd1047   2.001   1_455  S
Cd63        O710   2.066   1_545  S
Cd63       O1049   2.133       .  S
Cd63       O1046   2.001       .  S
O64         C399   1.287       .  A
O64       Cd1044   2.156       .  S
O65       Cd1047   2.133   1_455  S
C66          C76   1.485       .  S
C66          O70   1.253       .  A
C66         O709   1.291   1_545  A
C67        O1040   1.285       .  A
C71         C739   1.509   1_545  S
C71         O720   1.287   1_545  A
C72          O73   1.284       .  A
O73       Cd1044   2.153       .  S
C74          C75   1.415       .  A
C74         C407   1.400       .  A
C74         C113   1.483       .  S
C75         C404   1.404       .  A
C75          H80   1.084       .  S
C76          C77   1.420       .  A
C76         C731   1.404   1_545  A
C77          C78   1.410       .  A
C77          H81   1.084       .  S
C78          C79   1.395       .  A
C79         C730   1.400   1_545  A
C79          H82   1.061       .  S
C83          C84   1.424       .  A
C83          C88   1.403       .  A
C83         C399   1.509       .  S
C84          C85   1.385       .  A
C84        H1073   1.053       .  S
C85          C86   1.399       .  A
C85         C162   1.499       .  S
C86          C87   1.420       .  A
C86          H90   1.084       .  S
C87          C88   1.402       .  A
C87         C107   1.461       .  S
C88         H419   1.084       .  S
H89        C1068   1.053       .  S
H91         C744   1.084   1_545  S
O92         C108   1.266       .  A
O92         Zn98   1.977       .  S
C93         C128   1.498       .  S
C93         O109   1.265   1_556  A
C93         O270   1.283       .  A
O94         C107   1.287       .  A
O94        Cd101   2.144       .  S
O95         C113   1.271       .  A
O95        Cd104   2.050       .  S
O96         C110   1.274       .  A
O96        Cd100   2.044       .  S
O97         C108   1.279       .  A
O97        Cd100   2.123       .  S
Zn98        O109   1.975       .  S
Zn98        O111   1.871       .  S
Zn98        O103   1.933       .  S
O99         C274   1.279       .  A
O99        Cd104   2.066       .  S
Cd100       O102   2.075       .  S
Cd100       O103   1.972       .  S
Cd101       O433   2.143       .  S
Cd101       O278   2.104   1_554  S
Cd101       O103   2.018       .  S
O102        C440   1.271       .  A
O103       Cd268   2.001   1_554  S
Cd104       O106   2.142       .  S
Cd104       O267   2.001       .  S
O105        C112   1.282       .  A
O105       Cd757   2.143   1_545  S
O106        C257   1.283       .  A
C107        O111   1.255       .  A
C110        C119   1.478   1_554  S
C110        O263   1.279   1_554  A
C112        C135   1.499       .  S
C112        O758   1.271   1_545  A
C113        O114   1.282       .  A
O114       Cd265   2.104       .  S
C115        C116   1.404       .  A
C115        C120   1.400       .  A
C116        C117   1.381       .  A
C116       H1105   1.051       .  S
C117        C282   1.408       .  A
C117        C307   1.495       .  S
C118        C119   1.417   1_554  A
C118        C281   1.408   1_554  A
C118        H122   1.083       .  S
C119        C284   1.401       .  A
C120        C283   1.401       .  A
C120        H123   1.084       .  S
H121       C1100   1.051       .  S
C124        C125   1.408       .  A
C124        C457   1.395       .  A
C125        C290   1.407       .  A
C125        H130   1.084       .  S
C126        C289   1.407       .  A
C126        C455   1.414   1_556  A
C126        C488   1.487   1_556  S
C127        C128   1.411   1_554  A
C127        C782   1.414   1_554  A
C127        H131   1.083       .  S
C128        C293   1.394       .  A
C129        C780   1.395   1_545  A
C129        C292   1.394       .  A
C129        H132   1.056       .  S
C133        C134   1.417       .  A
C133        C138   1.403       .  A
C134        C135   1.386       .  A
C134        H139   1.058       .  S
C135        C136   1.407       .  A
C136        C137   1.425       .  A
C136        H140   1.084       .  S
C137        C138   1.399       .  A
C137        C157   1.471       .  S
C138        H141   1.085       .  S
O142        C486   1.262       .  A
O142       Zn476   1.949       .  S
C143        C281   1.495   1_554  S
C143        O159   1.260       .  A
C143       O1304   1.285   1_554  A
O144        C157   1.289       .  A
O144       Cd151   2.173       .  S
O145        C163   1.275       .  A
O145       Cd154   2.089       .  S
O146        C160   1.280       .  A
O146       Cd150   2.071       .  S
O147        C158   1.283       .  A
O147      Cd1134   2.153   1_455  S
Zn148       O161   1.853       .  S
Zn148       O798   1.949   1_545  S
Zn148       O815   1.956   1_545  S
Zn148       O153   1.939       .  S
O149        C324   1.281   1_565  A
O149       Cd154   2.085   1_565  S
Cd150       O152   2.069       .  S
Cd150      O1131   2.153       .  S
Cd150      O1137   1.993       .  S
Cd151      O1139   2.153   1_455  S
Cd151      O1312   2.139   1_454  S
Cd151       O153   2.018       .  S
O152        C162   1.271       .  A
O153      Cd1134   1.993   1_455  S
O153      Cd1302   2.016   1_454  S
Cd154       O812   2.139   1_545  S
Cd154      O1301   2.016       .  S
O155        C162   1.284       .  A
O155      Cd1135   2.153       .  S
O156       C1291   1.285       .  A
O156       Cd482   2.139       .  S
C157        O161   1.250       .  A
C158        C689   1.483   1_545  S
C158        O798   1.262   1_545  A
O159       Zn476   1.956       .  S
C160        C782   1.487   1_554  S
C160        O313   1.281   1_544  A
C163        O164   1.283       .  A
O164      Cd1299   2.139       .  S
C165        C166   1.403       .  A
C165        C170   1.417       .  A
C165        C327   1.504       .  S
C166        C167   1.408       .  A
C166        H171   1.084       .  S
C167        C168   1.422       .  A
C167        C192   1.483       .  S
C168        C169   1.404       .  A
C168        H172   1.084       .  S
C169        C170   1.386       .  A
C169        C236   1.498       .  S
C170       H1157   1.052       .  S
H173       C1154   1.052       .  S
O174        C190   1.267       .  A
O174       Zn180   1.985       .  S
C175        C242   1.511       .  S
C175        O191   1.268       .  A
C175        O188   1.286       .  A
O176        C189   1.283       .  A
O176       Cd183   2.128       .  S
O177        C195   1.273       .  A
O177       Cd186   2.054       .  S
O178        C192   1.275       .  A
O178       Cd182   2.046       .  S
O179        C190   1.278       .  A
O179       Cd182   2.109       .  S
Zn180       O191   1.995       .  S
Zn180       O193   1.872       .  S
Zn180       O185   1.934       .  S
O181        C192   1.281       .  A
O181       Cd186   2.085       .  S
Cd182       O184   2.070       .  S
Cd182       O185   1.970       .  S
Cd183       O515   2.127       .  S
Cd183       O196   2.095       .  S
Cd183       O185   2.026       .  S
O184        C522   1.269       .  A
O185       Cd186   2.001       .  S
Cd186       O188   2.166       .  S
O187        C194   1.279       .  A
O187       Cd839   2.127   1_545  S
C189        C199   1.463       .  S
C189        O193   1.257       .  A
C190        C297   1.490       .  S
C194        C210   1.493       .  S
C194        O840   1.269   1_545  A
C195        C288   1.480       .  S
C195        O196   1.280       .  A
C197        C198   1.405       .  A
C197        C202   1.414       .  A
C197        C650   1.483       .  S
C198        C199   1.398       .  A
C198        H531   1.084       .  S
C199        C200   1.414       .  A
C200        C201   1.399       .  A
C200        H204   1.085       .  S
C201        C202   1.380       .  A
C201        C231   1.501       .  S
C202       H1189   1.049       .  S
H203        C854   1.084   1_545  S
H205       C1186   1.049       .  S
C206        C207   1.399       .  A
C206        C211   1.418       .  A
C206        C272   1.495       .  S
C207        C208   1.401       .  A
C207        H212   1.085       .  S
C208        C209   1.418       .  A
C208        C233   1.477       .  S
C209        C210   1.406       .  A
C209        H213   1.084       .  S
C210        C211   1.391       .  A
C211        H214   1.060       .  S
O215        C231   1.261       .  A
O215       Zn221   1.960       .  S
C216        C279   1.476       .  S
C216        O232   1.262       .  A
C216        O229   1.281       .  A
O217        C558   1.291       .  A
O217       Cd224   2.200       .  S
O218        C236   1.270       .  A
O218       Cd555   2.066       .  S
O219        C233   1.281       .  A
O219       Cd223   2.072       .  S
O220       C1215   1.285       .  A
O220       Cd223   2.149       .  S
Zn221       O232   1.949       .  S
Zn221       O234   1.855       .  S
Zn221       O226   1.926       .  S
O222        C233   1.275       .  A
O222       Cd227   2.052       .  S
Cd223       O225   2.084       .  S
Cd223      O1210   2.018       .  S
Cd224      O1212   2.156   1_455  S
Cd224      O1221   2.153   1_455  S
Cd224       O554   2.019       .  S
O225        C235   1.274       .  A
O226      Cd1207   2.018   1_455  S
O226       Cd880   2.019   1_545  S
O226      Cd1211   2.001   1_455  S
Cd227       O874   2.066   1_545  S
Cd227      O1213   2.133       .  S
Cd227      O1210   2.001       .  S
O228        C563   1.287       .  A
O228      Cd1208   2.156       .  S
O229      Cd1211   2.133   1_455  S
C230        C240   1.485       .  S
C230        O873   1.291   1_545  A
C230        O234   1.253       .  A
C231       O1204   1.285       .  A
C235        C903   1.509   1_545  S
C235        O884   1.287   1_545  A
C236        O237   1.284       .  A
O237      Cd1208   2.153       .  S
C238        C239   1.415       .  A
C238        C571   1.400       .  A
C238        C277   1.483       .  S
C239        C568   1.404       .  A
C239        H244   1.084       .  S
C240        C895   1.404   1_545  A
C240        C241   1.420       .  A
C241        C242   1.410       .  A
C241        H245   1.084       .  S
C242        C243   1.395       .  A
C243        C894   1.400   1_545  A
C243        H246   1.062       .  S
C247        C248   1.424       .  A
C247        C252   1.403       .  A
C247        C563   1.509       .  S
C248        C249   1.385       .  A
C248       H1237   1.053       .  S
C249        C250   1.399       .  A
C249        C326   1.499       .  S
C250        C251   1.420       .  A
C250        H254   1.084       .  S
C251        C252   1.402       .  A
C251        C271   1.461       .  S
C252        H583   1.084       .  S
H253       C1232   1.053       .  S
H255        C908   1.084   1_545  S
O256        C272   1.266       .  A
O256       Zn262   1.977       .  S
C257        C292   1.498       .  S
C257        O273   1.265       .  A
O258        C271   1.287       .  A
O258       Cd265   2.144       .  S
O259        C277   1.271       .  A
O259       Cd268   2.050       .  S
O260        C274   1.274       .  A
O260       Cd264   2.044       .  S
O261        C272   1.279       .  A
O261       Cd264   2.123       .  S
Zn262       O273   1.975       .  S
Zn262       O275   1.871       .  S
Zn262       O267   1.933       .  S
O263       Cd268   2.066       .  S
Cd264       O266   2.075       .  S
Cd264       O267   1.972       .  S
Cd265       O597   2.143       .  S
Cd265       O267   2.018       .  S
O266        C604   1.271       .  A
Cd268       O270   2.142       .  S
O269        C276   1.282       .  A
O269       Cd921   2.143   1_545  S
C271        O275   1.255       .  A
C274        C283   1.478       .  S
C276        C299   1.499       .  S
C276        O922   1.271   1_545  A
C277        O278   1.282       .  A
C279        C280   1.404       .  A
C279        C284   1.400       .  A
C280        C281   1.381       .  A
C280       H1269   1.051       .  S
C282        C283   1.417       .  A
C282        H286   1.083       .  S
C284        H287   1.084       .  S
H285       C1264   1.051       .  S
C288        C289   1.408       .  A
C288        C621   1.394       .  A
C289        H294   1.084       .  S
C290        C619   1.414       .  A
C290        C652   1.487       .  S
C291        C946   1.414       .  A
C291        C292   1.411       .  A
C291        H295   1.083       .  S
C293        C944   1.394   1_545  A
C293        H296   1.057       .  S
C297        C298   1.417       .  A
C297        C302   1.403       .  A
C298        C299   1.386       .  A
C298        H303   1.058       .  S
C299        C300   1.407       .  A
C300        C301   1.425       .  A
C300        H304   1.084       .  S
C301        C302   1.399       .  A
C301        C321   1.471       .  S
C302        H305   1.085       .  S
O306        C650   1.262       .  A
O306       Zn640   1.949       .  S
C307        O323   1.260       .  A
C307       O1140   1.285       .  A
O308        C321   1.289       .  A
O308       Cd315   2.173       .  S
O309        C327   1.275       .  A
O309       Cd318   2.089       .  S
O310        C324   1.280       .  A
O310       Cd314   2.071       .  S
O311        C322   1.283       .  A
O311      Cd1298   2.153   1_455  S
Zn312       O962   1.949   1_545  S
Zn312       O979   1.956   1_545  S
Zn312       O325   1.853       .  S
Zn312       O317   1.939       .  S
O313       Cd318   2.085   1_565  S
Cd314      O1295   2.153       .  S
Cd314       O316   2.069       .  S
Cd314      O1301   1.993       .  S
Cd315      O1303   2.153   1_455  S
Cd315      O1148   2.139   1_455  S
Cd315       O317   2.018       .  S
O316        C326   1.271       .  A
O317      Cd1298   1.993   1_455  S
O317      Cd1138   2.016   1_455  S
Cd318       O976   2.139   1_545  S
Cd318      O1137   2.016   1_556  S
O319        C326   1.284       .  A
O319      Cd1299   2.153       .  S
O320       C1127   1.285   1_556  A
O320       Cd646   2.139       .  S
C321        O325   1.250       .  A
C322        C853   1.483   1_545  S
C322        O962   1.262   1_545  A
O323       Zn640   1.956       .  S
C324        C946   1.487       .  S
C327        O328   1.283       .  A
O328      Cd1135   2.139   1_556  S
C329        C330   1.403       .  A
C329        C334   1.417       .  A
C329        C491   1.504       .  S
C330        C331   1.408       .  A
C330        H335   1.084       .  S
C331        C332   1.422       .  A
C331        C356   1.483       .  S
C332        C333   1.404       .  A
C332        H336   1.084       .  S
C333        C334   1.386       .  A
C333        C400   1.498       .  S
C334       H1321   1.052       .  S
H337       C1318   1.052       .  S
O338        C354   1.267       .  A
O338       Zn344   1.985       .  S
C339        C406   1.511       .  S
C339        O355   1.268       .  A
C339        O352   1.286       .  A
O340        C353   1.283       .  A
O340       Cd347   2.128       .  S
O341        C359   1.273       .  A
O341       Cd350   2.054       .  S
O342        C356   1.275       .  A
O342       Cd346   2.046       .  S
O343        C354   1.278       .  A
O343       Cd346   2.109       .  S
Zn344       O355   1.995       .  S
Zn344       O357   1.872       .  S
Zn344       O349   1.934       .  S
O345        C356   1.281       .  A
O345       Cd350   2.085       .  S
Cd346       O348   2.070       .  S
Cd346       O349   1.970       .  S
Cd347       O679   2.127       .  S
Cd347       O360   2.095       .  S
Cd347       O349   2.026       .  S
O348        C686   1.269       .  A
O349       Cd350   2.001       .  S
Cd350       O352   2.166       .  S
O351        C358   1.279       .  A
C353        C363   1.463       .  S
C353        O357   1.257       .  A
C354        C461   1.490       .  S
C358        C374   1.493       .  S
C359        C452   1.480       .  S
C359        O360   1.280       .  A
C361        C362   1.405       .  A
C361        C366   1.414       .  A
C361        C814   1.483       .  S
C362        C363   1.398       .  A
C362        H695   1.084       .  S
C363        C364   1.414       .  A
C364        C365   1.399       .  A
C364        H368   1.085       .  S
C365        C366   1.380       .  A
C365        C395   1.501       .  S
C366       H1353   1.049       .  S
H369       C1350   1.049       .  S
C370        C371   1.399       .  A
C370        C375   1.418       .  A
C370        C436   1.495       .  S
C371        C372   1.401       .  A
C371        H376   1.085       .  S
C372        C373   1.418       .  A
C372        C397   1.477       .  S
C373        C374   1.406       .  A
C373        H377   1.084       .  S
C374        C375   1.391       .  A
C375        H378   1.060       .  S
O379        C395   1.261       .  A
O379       Zn385   1.960       .  S
C380        C443   1.476       .  S
C380        O396   1.262       .  A
C380        O393   1.281       .  A
O381        C722   1.291       .  A
O381       Cd388   2.200       .  S
O382        C400   1.270       .  A
O382       Cd719   2.066       .  S
O383        C397   1.281       .  A
O383       Cd387   2.072       .  S
O384       C1379   1.285       .  A
O384       Cd387   2.149       .  S
Zn385       O396   1.949       .  S
Zn385       O398   1.855       .  S
Zn385       O390   1.926       .  S
O386        C397   1.275       .  A
O386       Cd391   2.052       .  S
Cd387       O389   2.084       .  S
Cd387      O1374   2.018       .  S
Cd388      O1376   2.156   1_455  S
Cd388      O1385   2.153   1_455  S
Cd388       O718   2.019       .  S
O389        C399   1.274       .  A
O390      Cd1371   2.018   1_455  S
O390      Cd1375   2.001   1_455  S
Cd391      O1377   2.133       .  S
Cd391      O1374   2.001       .  S
O392        C727   1.287       .  A
O392      Cd1372   2.156       .  S
O393      Cd1375   2.133   1_455  S
C394        C404   1.485       .  S
C394        O398   1.253       .  A
C395       O1368   1.285       .  A
C400        O401   1.284       .  A
O401      Cd1372   2.153       .  S
C402        C403   1.415       .  A
C402        C735   1.400       .  A
C402        C441   1.483       .  S
C403        C732   1.404       .  A
C403        H408   1.084       .  S
C404        C405   1.420       .  A
C405        C406   1.410       .  A
C405        H409   1.084       .  S
C406        C407   1.395       .  A
C407        H410   1.061       .  S
C411        C412   1.424       .  A
C411        C416   1.403       .  A
C411        C727   1.509       .  S
C412        C413   1.385       .  A
C412       H1401   1.053       .  S
C413        C414   1.399       .  A
C413        C490   1.499       .  S
C414        C415   1.420       .  A
C414        H418   1.084       .  S
C415        C416   1.402       .  A
C415        C435   1.461       .  S
C416        H747   1.084       .  S
H417       C1396   1.053       .  S
O420        C436   1.266       .  A
O420       Zn426   1.977       .  S
C421        C456   1.498       .  S
C421        O437   1.265   1_556  A
C421        O598   1.283       .  A
O422        C435   1.287       .  A
O422       Cd429   2.144       .  S
O423        C441   1.271       .  A
O423       Cd432   2.050       .  S
O424        C438   1.274       .  A
O424       Cd428   2.044       .  S
O425        C436   1.279       .  A
O425       Cd428   2.123       .  S
Zn426       O437   1.975       .  S
Zn426       O439   1.871       .  S
Zn426       O431   1.933       .  S
O427        C602   1.279       .  A
O427       Cd432   2.066       .  S
Cd428       O430   2.075       .  S
Cd428       O431   1.972       .  S
Cd429       O761   2.143       .  S
Cd429       O606   2.104   1_554  S
Cd429       O431   2.018       .  S
O430        C768   1.271       .  A
O431       Cd596   2.001   1_554  S
Cd432       O434   2.142       .  S
Cd432       O595   2.001       .  S
O433        C440   1.282       .  A
O434        C585   1.283       .  A
C435        O439   1.255       .  A
C438        C447   1.478   1_554  S
C438        O591   1.279   1_554  A
C440        C463   1.499       .  S
C441        O442   1.282       .  A
O442       Cd593   2.104       .  S
C443        C444   1.404       .  A
C443        C448   1.400       .  A
C444        C445   1.381       .  A
C444       H1433   1.051       .  S
C445        C610   1.408       .  A
C445        C635   1.495       .  S
C446        C609   1.408   1_554  A
C446        C447   1.417   1_554  A
C446        H450   1.083       .  S
C447        C612   1.401       .  A
C448        C611   1.401       .  A
C448        H451   1.084       .  S
H449       C1428   1.051       .  S
C452        C453   1.408       .  A
C452        C785   1.395       .  A
C453        C618   1.407       .  A
C453        H458   1.084       .  S
C454        C617   1.407       .  A
C454        C783   1.414   1_556  A
C454        C816   1.487   1_556  S
C455        C456   1.411   1_554  A
C455        H459   1.083       .  S
C456        C621   1.394       .  A
C457        C620   1.394       .  A
C457        H460   1.056       .  S
C461        C462   1.417       .  A
C461        C466   1.403       .  A
C462        C463   1.386       .  A
C462        H467   1.058       .  S
C463        C464   1.407       .  A
C464        C465   1.425       .  A
C464        H468   1.084       .  S
C465        C466   1.399       .  A
C465        C485   1.471       .  S
C466        H469   1.085       .  S
O470        C814   1.262       .  A
O470       Zn804   1.949       .  S
C471        C609   1.495   1_554  S
C471        O487   1.260       .  A
C471       O1632   1.285   1_554  A
O472        C485   1.289       .  A
O472       Cd479   2.173       .  S
O473        C491   1.275       .  A
O473       Cd482   2.089       .  S
O474        C488   1.280       .  A
O474       Cd478   2.071       .  S
O475        C486   1.283       .  A
O475      Cd1462   2.153   1_455  S
Zn476       O489   1.853       .  S
Zn476       O481   1.939       .  S
O477        C652   1.281       .  A
O477       Cd482   2.085       .  S
Cd478      O1459   2.153       .  S
Cd478       O480   2.069       .  S
Cd478      O1465   1.993       .  S
Cd479      O1467   2.153   1_455  S
Cd479      O1640   2.139   1_454  S
Cd479       O481   2.018       .  S
O480        C490   1.271       .  A
O481      Cd1462   1.993   1_455  S
O481      Cd1630   2.016   1_454  S
Cd482      O1629   2.016       .  S
O483        C490   1.284       .  A
O483      Cd1463   2.153       .  S
O484       C1619   1.285       .  A
O484       Cd810   2.139       .  S
C485        O489   1.250       .  A
O487       Zn804   1.956       .  S
C488        O641   1.281   1_554  A
C491        O492   1.283       .  A
O492      Cd1627   2.139       .  S
C493        C494   1.403       .  A
C493        C498   1.417       .  A
C493        C655   1.504       .  S
C494        C495   1.408       .  A
C494        H499   1.084       .  S
C495        C496   1.422       .  A
C495        C520   1.483       .  S
C496        C497   1.404       .  A
C496        H500   1.084       .  S
C497        C498   1.386       .  A
C497        C564   1.498       .  S
C498       H1485   1.052       .  S
H501       C1482   1.052       .  S
O502        C518   1.267       .  A
O502       Zn508   1.985       .  S
C503        C570   1.511       .  S
C503        O519   1.268       .  A
C503        O516   1.286       .  A
O504        C517   1.283       .  A
O504       Cd511   2.128       .  S
O505        C523   1.273       .  A
O505       Cd514   2.054       .  S
O506        C520   1.275       .  A
O506       Cd510   2.046       .  S
O507        C518   1.278       .  A
O507       Cd510   2.109       .  S
Zn508       O519   1.995       .  S
Zn508       O521   1.872       .  S
Zn508       O513   1.934       .  S
O509        C520   1.281       .  A
O509       Cd514   2.085       .  S
Cd510       O512   2.070       .  S
Cd510       O513   1.970       .  S
Cd511       O843   2.127       .  S
Cd511       O524   2.095       .  S
Cd511       O513   2.026       .  S
O512        C850   1.269       .  A
O513       Cd514   2.001       .  S
Cd514       O516   2.166       .  S
O515        C522   1.279       .  A
C517        C527   1.463       .  S
C517        O521   1.257       .  A
C518        C625   1.490       .  S
C522        C538   1.493       .  S
C523        C616   1.480       .  S
C523        O524   1.280       .  A
C525        C526   1.405       .  A
C525        C530   1.414       .  A
C525        C978   1.483       .  S
C526        C527   1.398       .  A
C526        H859   1.084       .  S
C527        C528   1.414       .  A
C528        C529   1.399       .  A
C528        H532   1.085       .  S
C529        C530   1.380       .  A
C529        C559   1.501       .  S
C530       H1517   1.049       .  S
H533       C1514   1.049       .  S
C534        C535   1.399       .  A
C534        C539   1.418       .  A
C534        C600   1.495       .  S
C535        C536   1.401       .  A
C535        H540   1.085       .  S
C536        C537   1.418       .  A
C536        C561   1.477       .  S
C537        C538   1.406       .  A
C537        H541   1.084       .  S
C538        C539   1.391       .  A
C539        H542   1.060       .  S
O543        C559   1.261       .  A
O543       Zn549   1.960       .  S
C544        C607   1.476       .  S
C544        O560   1.262       .  A
C544        O557   1.281       .  A
O545        C886   1.291       .  A
O545       Cd552   2.200       .  S
O546        C564   1.270       .  A
O546       Cd883   2.066       .  S
O547        C561   1.281       .  A
O547       Cd551   2.072       .  S
O548       C1543   1.285       .  A
O548       Cd551   2.149       .  S
Zn549       O560   1.949       .  S
Zn549       O562   1.855       .  S
Zn549       O554   1.926       .  S
O550        C561   1.275       .  A
O550       Cd555   2.052       .  S
Cd551       O553   2.084       .  S
Cd551      O1538   2.018       .  S
Cd552      O1540   2.156   1_455  S
Cd552      O1549   2.153   1_455  S
Cd552       O882   2.019       .  S
O553        C563   1.274       .  A
O554      Cd1535   2.018   1_455  S
O554      Cd1539   2.001   1_455  S
Cd555      O1541   2.133       .  S
Cd555      O1538   2.001       .  S
O556        C891   1.287       .  A
O556      Cd1536   2.156       .  S
O557      Cd1539   2.133   1_455  S
C558        C568   1.485       .  S
C558        O562   1.253       .  A
C559       O1532   1.285       .  A
C564        O565   1.284       .  A
O565      Cd1536   2.153       .  S
C566        C567   1.415       .  A
C566        C899   1.400       .  A
C566        C605   1.483       .  S
C567        C896   1.404       .  A
C567        H572   1.084       .  S
C568        C569   1.420       .  A
C569        C570   1.410       .  A
C569        H573   1.084       .  S
C570        C571   1.395       .  A
C571        H574   1.062       .  S
C575        C576   1.424       .  A
C575        C580   1.403       .  A
C575        C891   1.509       .  S
C576        C577   1.385       .  A
C576       H1565   1.053       .  S
C577        C578   1.399       .  A
C577        C654   1.499       .  S
C578        C579   1.420       .  A
C578        H582   1.084       .  S
C579        C580   1.402       .  A
C579        C599   1.461       .  S
C580        H911   1.084       .  S
H581       C1560   1.053       .  S
O584        C600   1.266       .  A
O584       Zn590   1.977       .  S
C585        C620   1.498       .  S
C585        O601   1.265       .  A
O586        C599   1.287       .  A
O586       Cd593   2.144       .  S
O587        C605   1.271       .  A
O587       Cd596   2.050       .  S
O588        C602   1.274       .  A
O588       Cd592   2.044       .  S
O589        C600   1.279       .  A
O589       Cd592   2.123       .  S
Zn590       O601   1.975       .  S
Zn590       O603   1.871       .  S
Zn590       O595   1.933       .  S
O591       Cd596   2.066       .  S
Cd592       O594   2.075       .  S
Cd592       O595   1.972       .  S
Cd593       O925   2.143       .  S
Cd593       O595   2.018       .  S
O594        C932   1.271       .  A
Cd596       O598   2.142       .  S
O597        C604   1.282       .  A
C599        O603   1.255       .  A
C602        C611   1.478       .  S
C604        C627   1.499       .  S
C605        O606   1.282       .  A
C607        C608   1.404       .  A
C607        C612   1.400       .  A
C608        C609   1.381       .  A
C608       H1597   1.051       .  S
C610        C611   1.417       .  A
C610        H614   1.083       .  S
C612        H615   1.084       .  S
H613       C1592   1.051       .  S
C616        C617   1.408       .  A
C616        C949   1.394       .  A
C617        H622   1.084       .  S
C618        C947   1.414       .  A
C618        C980   1.487       .  S
C619        C620   1.411       .  A
C619        H623   1.083       .  S
C621        H624   1.057       .  S
C625        C626   1.417       .  A
C625        C630   1.403       .  A
C626        C627   1.386       .  A
C626        H631   1.058       .  S
C627        C628   1.407       .  A
C628        C629   1.425       .  A
C628        H632   1.084       .  S
C629        C630   1.399       .  A
C629        C649   1.471       .  S
C630        H633   1.085       .  S
O634        C978   1.262       .  A
O634       Zn968   1.949       .  S
C635        O651   1.260       .  A
C635       O1468   1.285       .  A
O636        C649   1.289       .  A
O636       Cd643   2.173       .  S
O637        C655   1.275       .  A
O637       Cd646   2.089       .  S
O638        C652   1.280       .  A
O638       Cd642   2.071       .  S
O639        C650   1.283       .  A
O639      Cd1626   2.153   1_455  S
Zn640       O653   1.853       .  S
Zn640       O645   1.939       .  S
O641       Cd646   2.085       .  S
Cd642      O1623   2.153       .  S
Cd642       O644   2.069       .  S
Cd642      O1629   1.993       .  S
Cd643      O1631   2.153   1_455  S
Cd643      O1476   2.139   1_455  S
Cd643       O645   2.018       .  S
O644        C654   1.271       .  A
O645      Cd1626   1.993   1_455  S
O645      Cd1466   2.016   1_455  S
Cd646      O1465   2.016   1_556  S
O647        C654   1.284       .  A
O647      Cd1627   2.153       .  S
O648       C1455   1.285   1_556  A
O648       Cd974   2.139       .  S
C649        O653   1.250       .  A
O651       Zn968   1.956       .  S
C655        O656   1.283       .  A
O656      Cd1463   2.139   1_556  S
C657        C658   1.403       .  A
C657        C662   1.417       .  A
C657        C819   1.504       .  S
C658        C659   1.408       .  A
C658        H663   1.084       .  S
C659        C660   1.422       .  A
C659        C684   1.483       .  S
C660        C661   1.404       .  A
C660        H664   1.084       .  S
C661        C662   1.386       .  A
C661        C728   1.498       .  S
C662       H1649   1.052       .  S
H665       C1646   1.052       .  S
O666        C682   1.267       .  A
O666       Zn672   1.985       .  S
C667        C734   1.511       .  S
C667        O683   1.268       .  A
C667        O680   1.286       .  A
O668        C681   1.283       .  A
O668       Cd675   2.128       .  S
O669        C687   1.273       .  A
O669       Cd678   2.054       .  S
O670        C684   1.275       .  A
O670       Cd674   2.046       .  S
O671        C682   1.278       .  A
O671       Cd674   2.109       .  S
Zn672       O683   1.995       .  S
Zn672       O685   1.872       .  S
Zn672       O677   1.934       .  S
O673        C684   1.281       .  A
O673       Cd678   2.085       .  S
Cd674       O676   2.070       .  S
Cd674       O677   1.970       .  S
Cd675       O688   2.095       .  S
Cd675       O677   2.026       .  S
O677       Cd678   2.001       .  S
Cd678       O680   2.166       .  S
O679        C686   1.279       .  A
C681        C691   1.463       .  S
C681        O685   1.257       .  A
C682        C789   1.490       .  S
C686        C702   1.493       .  S
C687        C780   1.480       .  S
C687        O688   1.280       .  A
C689        C690   1.405       .  A
C689        C694   1.414       .  A
C690        C691   1.398       .  A
C691        C692   1.414       .  A
C692        C693   1.399       .  A
C692        H696   1.085       .  S
C693        C694   1.380       .  A
C693        C723   1.501       .  S
C694       H1681   1.049       .  S
H697       C1678   1.049       .  S
C698        C699   1.399       .  A
C698        C703   1.418       .  A
C698        C764   1.495       .  S
C699        C700   1.401       .  A
C699        H704   1.085       .  S
C700        C701   1.418       .  A
C700        C725   1.477       .  S
C701        C702   1.406       .  A
C701        H705   1.084       .  S
C702        C703   1.391       .  A
C703        H706   1.060       .  S
O707        C723   1.261       .  A
O707       Zn713   1.960       .  S
C708        C771   1.476       .  S
C708        O724   1.262       .  A
C708        O721   1.281       .  A
O709       Cd716   2.200       .  S
O710        C728   1.270       .  A
O711        C725   1.281       .  A
O711       Cd715   2.072       .  S
O712       C1707   1.285       .  A
O712       Cd715   2.149       .  S
Zn713       O724   1.949       .  S
Zn713       O726   1.855       .  S
Zn713       O718   1.926       .  S
O714        C725   1.275       .  A
O714       Cd719   2.052       .  S
Cd715       O717   2.084       .  S
Cd715      O1702   2.018       .  S
Cd716      O1704   2.156   1_455  S
Cd716      O1713   2.153   1_455  S
O717        C727   1.274       .  A
O718      Cd1699   2.018   1_455  S
O718      Cd1703   2.001   1_455  S
Cd719      O1705   2.133       .  S
Cd719      O1702   2.001       .  S
O720      Cd1700   2.156       .  S
O721      Cd1703   2.133   1_455  S
C722        C732   1.485       .  S
C722        O726   1.253       .  A
C723       O1696   1.285       .  A
C728        O729   1.284       .  A
O729      Cd1700   2.153       .  S
C730        C731   1.415       .  A
C730        C769   1.483       .  S
C731        H736   1.084       .  S
C732        C733   1.420       .  A
C733        C734   1.410       .  A
C733        H737   1.084       .  S
C734        C735   1.395       .  A
C735        H738   1.061       .  S
C739        C740   1.424       .  A
C739        C744   1.403       .  A
C740        C741   1.385       .  A
C740       H1729   1.053       .  S
C741        C742   1.399       .  A
C741        C818   1.499       .  S
C742        C743   1.420       .  A
C742        H746   1.084       .  S
C743        C744   1.402       .  A
C743        C763   1.461       .  S
H745       C1724   1.053       .  S
O748        C764   1.266       .  A
O748       Zn754   1.977       .  S
C749        C784   1.498       .  S
C749        O765   1.265   1_556  A
C749        O926   1.283       .  A
O750        C763   1.287       .  A
O750       Cd757   2.144       .  S
O751        C769   1.271       .  A
O751       Cd760   2.050       .  S
O752        C766   1.274       .  A
O752       Cd756   2.044       .  S
O753        C764   1.279       .  A
O753       Cd756   2.123       .  S
Zn754       O765   1.975       .  S
Zn754       O767   1.871       .  S
Zn754       O759   1.933       .  S
O755        C930   1.279       .  A
O755       Cd760   2.066       .  S
Cd756       O758   2.075       .  S
Cd756       O759   1.972       .  S
Cd757       O934   2.104   1_554  S
Cd757       O759   2.018       .  S
O759       Cd924   2.001   1_554  S
Cd760       O762   2.142       .  S
Cd760       O923   2.001       .  S
O761        C768   1.282       .  A
O762        C913   1.283       .  A
C763        O767   1.255       .  A
C766        C775   1.478   1_554  S
C766        O919   1.279   1_554  A
C768        C791   1.499       .  S
C769        O770   1.282       .  A
O770       Cd921   2.104       .  S
C771        C772   1.404       .  A
C771        C776   1.400       .  A
C772        C773   1.381       .  A
C772       H1761   1.051       .  S
C773        C938   1.408       .  A
C773        C963   1.495       .  S
C774        C937   1.408   1_554  A
C774        C775   1.417   1_554  A
C774        H778   1.083       .  S
C775        C940   1.401       .  A
C776        C939   1.401       .  A
C776        H779   1.084       .  S
H777       C1756   1.051       .  S
C780        C781   1.408       .  A
C781        C946   1.407   1_565  A
C781        H786   1.084       .  S
C782        C945   1.407   1_545  A
C783        C784   1.411   1_554  A
C783        H787   1.083       .  S
C784        C949   1.394       .  A
C785        C948   1.394       .  A
C785        H788   1.056       .  S
C789        C790   1.417       .  A
C789        C794   1.403       .  A
C790        C791   1.386       .  A
C790        H795   1.058       .  S
C791        C792   1.407       .  A
C792        C793   1.425       .  A
C792        H796   1.084       .  S
C793        C794   1.399       .  A
C793        C813   1.471       .  S
C794        H797   1.085       .  S
C799        C937   1.495   1_554  S
C799        O815   1.260       .  A
C799       O1960   1.285   1_554  A
O800        C813   1.289       .  A
O800       Cd807   2.173       .  S
O801        C819   1.275       .  A
O801       Cd810   2.089       .  S
O802        C816   1.280       .  A
O802       Cd806   2.071       .  S
O803        C814   1.283       .  A
O803      Cd1790   2.153   1_455  S
Zn804       O817   1.853       .  S
Zn804       O809   1.939       .  S
O805        C980   1.281       .  A
O805       Cd810   2.085       .  S
Cd806      O1787   2.153       .  S
Cd806       O808   2.069       .  S
Cd806      O1793   1.993       .  S
Cd807      O1795   2.153   1_455  S
Cd807      O1968   2.139   1_454  S
Cd807       O809   2.018       .  S
O808        C818   1.271       .  A
O809      Cd1790   1.993   1_455  S
O809      Cd1958   2.016   1_454  S
Cd810      O1957   2.016       .  S
O811        C818   1.284       .  A
O811      Cd1791   2.153       .  S
O812       C1947   1.285       .  A
C813        O817   1.250       .  A
C816        O969   1.281   1_554  A
C819        O820   1.283       .  A
O820      Cd1955   2.139       .  S
C821        C822   1.403       .  A
C821        C826   1.417       .  A
C821        C983   1.504       .  S
C822        C823   1.408       .  A
C822        H827   1.084       .  S
C823        C824   1.422       .  A
C823        C848   1.483       .  S
C824        C825   1.404       .  A
C824        H828   1.084       .  S
C825        C826   1.386       .  A
C825        C892   1.498       .  S
C826       H1813   1.052       .  S
H829       C1810   1.052       .  S
O830        C846   1.267       .  A
O830       Zn836   1.985       .  S
C831        C898   1.511       .  S
C831        O847   1.268       .  A
C831        O844   1.286       .  A
O832        C845   1.283       .  A
O832       Cd839   2.128       .  S
O833        C851   1.273       .  A
O833       Cd842   2.054       .  S
O834        C848   1.275       .  A
O834       Cd838   2.046       .  S
O835        C846   1.278       .  A
O835       Cd838   2.109       .  S
Zn836       O847   1.995       .  S
Zn836       O849   1.872       .  S
Zn836       O841   1.934       .  S
O837        C848   1.281       .  A
O837       Cd842   2.085       .  S
Cd838       O840   2.070       .  S
Cd838       O841   1.970       .  S
Cd839       O852   2.095       .  S
Cd839       O841   2.026       .  S
O841       Cd842   2.001       .  S
Cd842       O844   2.166       .  S
O843        C850   1.279       .  A
C845        C855   1.463       .  S
C845        O849   1.257       .  A
C846        C953   1.490       .  S
C850        C866   1.493       .  S
C851        C944   1.480       .  S
C851        O852   1.280       .  A
C853        C854   1.405       .  A
C853        C858   1.414       .  A
C854        C855   1.398       .  A
C855        C856   1.414       .  A
C856        C857   1.399       .  A
C856        H860   1.085       .  S
C857        C858   1.380       .  A
C857        C887   1.501       .  S
C858       H1845   1.049       .  S
H861       C1842   1.049       .  S
C862        C863   1.399       .  A
C862        C867   1.418       .  A
C862        C928   1.495       .  S
C863        C864   1.401       .  A
C863        H868   1.085       .  S
C864        C865   1.418       .  A
C864        C889   1.477       .  S
C865        C866   1.406       .  A
C865        H869   1.084       .  S
C866        C867   1.391       .  A
C867        H870   1.060       .  S
O871        C887   1.261       .  A
O871       Zn877   1.960       .  S
C872        C935   1.476       .  S
C872        O888   1.262       .  A
C872        O885   1.281       .  A
O873       Cd880   2.200       .  S
O874        C892   1.270       .  A
O875        C889   1.281       .  A
O875       Cd879   2.072       .  S
O876       C1871   1.285       .  A
O876       Cd879   2.149       .  S
Zn877       O888   1.949       .  S
Zn877       O890   1.855       .  S
Zn877       O882   1.926       .  S
O878        C889   1.275       .  A
O878       Cd883   2.052       .  S
Cd879       O881   2.084       .  S
Cd879      O1866   2.018       .  S
Cd880      O1868   2.156   1_455  S
Cd880      O1877   2.153   1_455  S
O881        C891   1.274       .  A
O882      Cd1863   2.018   1_455  S
O882      Cd1867   2.001   1_455  S
Cd883      O1869   2.133       .  S
Cd883      O1866   2.001       .  S
O884      Cd1864   2.156       .  S
O885      Cd1867   2.133   1_455  S
C886        C896   1.485       .  S
C886        O890   1.253       .  A
C887       O1860   1.285       .  A
C892        O893   1.284       .  A
O893      Cd1864   2.153       .  S
C894        C895   1.415       .  A
C894        C933   1.483       .  S
C895        H900   1.084       .  S
C896        C897   1.420       .  A
C897        C898   1.410       .  A
C897        H901   1.084       .  S
C898        C899   1.395       .  A
C899        H902   1.062       .  S
C903        C904   1.424       .  A
C903        C908   1.403       .  A
C904        C905   1.385       .  A
C904       H1893   1.053       .  S
C905        C906   1.399       .  A
C905        C982   1.499       .  S
C906        C907   1.420       .  A
C906        H910   1.084       .  S
C907        C908   1.402       .  A
C907        C927   1.461       .  S
H909       C1888   1.053       .  S
O912        C928   1.266       .  A
O912       Zn918   1.977       .  S
C913        C948   1.498       .  S
C913        O929   1.265       .  A
O914        C927   1.287       .  A
O914       Cd921   2.144       .  S
O915        C933   1.271       .  A
O915       Cd924   2.050       .  S
O916        C930   1.274       .  A
O916       Cd920   2.044       .  S
O917        C928   1.279       .  A
O917       Cd920   2.123       .  S
Zn918       O929   1.975       .  S
Zn918       O931   1.871       .  S
Zn918       O923   1.933       .  S
O919       Cd924   2.066       .  S
Cd920       O922   2.075       .  S
Cd920       O923   1.972       .  S
Cd921       O923   2.018       .  S
Cd924       O926   2.142       .  S
O925        C932   1.282       .  A
C927        O931   1.255       .  A
C930        C939   1.478       .  S
C932        C955   1.499       .  S
C933        O934   1.282       .  A
C935        C936   1.404       .  A
C935        C940   1.400       .  A
C936        C937   1.381       .  A
C936       H1925   1.051       .  S
C938        C939   1.417       .  A
C938        H942   1.083       .  S
C940        H943   1.084       .  S
H941       C1920   1.051       .  S
C944        C945   1.408       .  A
C945        H950   1.084       .  S
C947        C948   1.411       .  A
C947        H951   1.083       .  S
C949        H952   1.057       .  S
C953        C954   1.417       .  A
C953        C958   1.403       .  A
C954        C955   1.386       .  A
C954        H959   1.058       .  S
C955        C956   1.407       .  A
C956        C957   1.425       .  A
C956        H960   1.084       .  S
C957        C958   1.399       .  A
C957        C977   1.471       .  S
C958        H961   1.085       .  S
C963        O979   1.260       .  A
C963       O1796   1.285       .  A
O964        C977   1.289       .  A
O964       Cd971   2.173       .  S
O965        C983   1.275       .  A
O965       Cd974   2.089       .  S
O966        C980   1.280       .  A
O966       Cd970   2.071       .  S
O967        C978   1.283       .  A
O967      Cd1954   2.153   1_455  S
Zn968       O981   1.853       .  S
Zn968       O973   1.939       .  S
O969       Cd974   2.085       .  S
Cd970      O1951   2.153       .  S
Cd970       O972   2.069       .  S
Cd970      O1957   1.993       .  S
Cd971      O1959   2.153   1_455  S
Cd971      O1804   2.139   1_455  S
Cd971       O973   2.018       .  S
O972        C982   1.271       .  A
O973      Cd1954   1.993   1_455  S
O973      Cd1794   2.016   1_455  S
Cd974      O1793   2.016   1_556  S
O975        C982   1.284       .  A
O975      Cd1955   2.153       .  S
O976       C1783   1.285   1_556  A
C977        O981   1.250       .  A
C983        O984   1.283       .  A
O984      Cd1791   2.139   1_556  S
C985        C986   1.403       .  A
C985        C990   1.417       .  A
C985       C1147   1.504       .  S
C986        C987   1.408       .  A
C986        H991   1.084       .  S
C987        C988   1.422       .  A
C987       C1012   1.483       .  S
C988        C989   1.404       .  A
C988        H992   1.084       .  S
C989        C990   1.386       .  A
C989       C1056   1.498       .  S
O994       C1010   1.267       .  A
O994      Zn1000   1.985       .  S
C995       C1062   1.511       .  S
C995       O1011   1.268       .  A
C995       O1008   1.286       .  A
O996       C1009   1.283       .  A
O996      Cd1003   2.128       .  S
O997       C1015   1.273       .  A
O997      Cd1006   2.054       .  S
O998       C1012   1.275       .  A
O998      Cd1002   2.046       .  S
O999       C1010   1.278       .  A
O999      Cd1002   2.109       .  S
Zn1000     O1011   1.995       .  S
Zn1000     O1013   1.872       .  S
Zn1000     O1005   1.934       .  S
O1001      C1012   1.281       .  A
O1001     Cd1006   2.085       .  S
Cd1002     O1004   2.070       .  S
Cd1002     O1005   1.970       .  S
Cd1003     O1335   2.127       .  S
Cd1003     O1016   2.095       .  S
Cd1003     O1005   2.026       .  S
O1004      C1342   1.269       .  A
O1005     Cd1006   2.001       .  S
Cd1006     O1008   2.166       .  S
O1007      C1014   1.279       .  A
O1007     Cd1659   2.127   1_545  S
C1009      C1019   1.463       .  S
C1009      O1013   1.257       .  A
C1010      C1117   1.490       .  S
C1014      C1030   1.493       .  S
C1014      O1660   1.269   1_545  A
C1015      C1108   1.480       .  S
C1015      O1016   1.280       .  A
C1017      C1018   1.405       .  A
C1017      C1022   1.414       .  A
C1017      C1470   1.483       .  S
C1018      C1019   1.398       .  A
C1018      H1351   1.084       .  S
C1019      C1020   1.414       .  A
C1020      C1021   1.399       .  A
C1020      H1024   1.085       .  S
C1021      C1022   1.380       .  A
C1021      C1051   1.501       .  S
H1023      C1674   1.084   1_545  S
C1026      C1027   1.399       .  A
C1026      C1031   1.418       .  A
C1026      C1092   1.495       .  S
C1027      C1028   1.401       .  A
C1027      H1032   1.085       .  S
C1028      C1029   1.418       .  A
C1028      C1053   1.477       .  S
C1029      C1030   1.406       .  A
C1029      H1033   1.084       .  S
C1030      C1031   1.391       .  A
C1031      H1034   1.060       .  S
O1035      C1051   1.261       .  A
O1035     Zn1041   1.960       .  S
C1036      C1099   1.476       .  S
C1036      O1052   1.262       .  A
C1036      O1049   1.281       .  A
O1037      C1378   1.291       .  A
O1037     Cd1044   2.200       .  S
O1038      C1056   1.270       .  A
O1038     Cd1375   2.066       .  S
O1039      C1053   1.281       .  A
O1039     Cd1043   2.072       .  S
O1040     Cd1043   2.149   1_455  S
Zn1041     O1052   1.949       .  S
Zn1041     O1054   1.855       .  S
Zn1041     O1046   1.926       .  S
O1042      C1053   1.275       .  A
O1042     Cd1047   2.052       .  S
Cd1043     O1045   2.084       .  S
Cd1044     O1374   2.019       .  S
O1045      C1055   1.274       .  A
O1046     Cd1700   2.019   1_545  S
Cd1047     O1694   2.066   1_545  S
O1048      C1383   1.287       .  A
C1050      C1060   1.485       .  S
C1050      O1693   1.291   1_545  A
C1050      O1054   1.253       .  A
C1055      C1723   1.509   1_545  S
C1055      O1704   1.287   1_545  A
C1056      O1057   1.284       .  A
C1058      C1059   1.415       .  A
C1058      C1391   1.400       .  A
C1058      C1097   1.483       .  S
C1059      C1388   1.404       .  A
C1059      H1064   1.084       .  S
C1060      C1715   1.404   1_545  A
C1060      C1061   1.420       .  A
C1061      C1062   1.410       .  A
C1061      H1065   1.084       .  S
C1062      C1063   1.395       .  A
C1063      C1714   1.400   1_545  A
C1063      H1066   1.061       .  S
C1067      C1068   1.424       .  A
C1067      C1072   1.403       .  A
C1067      C1383   1.509       .  S
C1068      C1069   1.385       .  A
C1069      C1070   1.399       .  A
C1069      C1146   1.499       .  S
C1070      C1071   1.420       .  A
C1070      H1074   1.084       .  S
C1071      C1072   1.402       .  A
C1071      C1091   1.461       .  S
C1072      H1403   1.084       .  S
H1075      C1728   1.084   1_545  S
O1076      C1092   1.266       .  A
O1076     Zn1082   1.977       .  S
C1077      C1112   1.498       .  S
C1077      O1093   1.265   1_556  A
C1077      O1254   1.283       .  A
O1078      C1091   1.287       .  A
O1078     Cd1085   2.144       .  S
O1079      C1097   1.271       .  A
O1079     Cd1088   2.050       .  S
O1080      C1094   1.274       .  A
O1080     Cd1084   2.044       .  S
O1081      C1092   1.279       .  A
O1081     Cd1084   2.123       .  S
Zn1082     O1093   1.975       .  S
Zn1082     O1095   1.871       .  S
Zn1082     O1087   1.933       .  S
O1083      C1258   1.279       .  A
O1083     Cd1088   2.066       .  S
Cd1084     O1086   2.075       .  S
Cd1084     O1087   1.972       .  S
Cd1085     O1417   2.143       .  S
Cd1085     O1262   2.104   1_554  S
Cd1085     O1087   2.018       .  S
O1086      C1424   1.271       .  A
O1087     Cd1252   2.001   1_554  S
Cd1088     O1090   2.142       .  S
Cd1088     O1251   2.001       .  S
O1089      C1096   1.282       .  A
O1089     Cd1741   2.143   1_545  S
O1090      C1241   1.283       .  A
C1091      O1095   1.255       .  A
C1094      C1103   1.478   1_554  S
C1094      O1247   1.279   1_554  A
C1096      C1119   1.499       .  S
C1096      O1742   1.271   1_545  A
C1097      O1098   1.282       .  A
O1098     Cd1249   2.104       .  S
C1099      C1100   1.404       .  A
C1099      C1104   1.400       .  A
C1100      C1101   1.381       .  A
C1101      C1266   1.408       .  A
C1101      C1291   1.495       .  S
C1102      C1265   1.408   1_554  A
C1102      C1103   1.417   1_554  A
C1102      H1106   1.083       .  S
C1103      C1268   1.401       .  A
C1104      C1267   1.401       .  A
C1104      H1107   1.084       .  S
C1108      C1109   1.408       .  A
C1108      C1441   1.395       .  A
C1109      C1274   1.407       .  A
C1109      H1114   1.084       .  S
C1110      C1273   1.407       .  A
C1110      C1439   1.414   1_556  A
C1110      C1472   1.487   1_556  S
C1111      C1766   1.414   1_554  A
C1111      C1112   1.411   1_554  A
C1111      H1115   1.083       .  S
C1112      C1277   1.394       .  A
C1113      C1764   1.395   1_545  A
C1113      C1276   1.394       .  A
C1113      H1116   1.056       .  S
C1117      C1118   1.417       .  A
C1117      C1122   1.403       .  A
C1118      C1119   1.386       .  A
C1118      H1123   1.058       .  S
C1119      C1120   1.407       .  A
C1120      C1121   1.425       .  A
C1120      H1124   1.084       .  S
C1121      C1122   1.399       .  A
C1121      C1141   1.471       .  S
C1122      H1125   1.085       .  S
O1126      C1470   1.262       .  A
O1126     Zn1460   1.949       .  S
C1127      C1265   1.495   1_554  S
C1127      O1143   1.260       .  A
O1128      C1141   1.289       .  A
O1128     Cd1135   2.173       .  S
O1129      C1147   1.275       .  A
O1129     Cd1138   2.089       .  S
O1130      C1144   1.280       .  A
O1130     Cd1134   2.071       .  S
O1131      C1142   1.283       .  A
Zn1132     O1782   1.949   1_545  S
Zn1132     O1799   1.956   1_545  S
Zn1132     O1145   1.853       .  S
Zn1132     O1137   1.939       .  S
O1133      C1308   1.281   1_565  A
O1133     Cd1138   2.085   1_565  S
Cd1134     O1136   2.069       .  S
Cd1135     O1137   2.018       .  S
O1136      C1146   1.271       .  A
Cd1138     O1796   2.139   1_645  S
O1139      C1146   1.284       .  A
O1140     Cd1466   2.139   1_455  S
C1141      O1145   1.250       .  A
C1142      C1673   1.483   1_545  S
C1142      O1782   1.262   1_545  A
O1143     Zn1460   1.956       .  S
C1144      C1766   1.487   1_554  S
C1144      O1297   1.281   1_544  A
C1147      O1148   1.283       .  A
C1149      C1150   1.403       .  A
C1149      C1154   1.417       .  A
C1149      C1311   1.504       .  S
C1150      C1151   1.408       .  A
C1150      H1155   1.084       .  S
C1151      C1152   1.422       .  A
C1151      C1176   1.483       .  S
C1152      C1153   1.404       .  A
C1152      H1156   1.084       .  S
C1153      C1154   1.386       .  A
C1153      C1220   1.498       .  S
O1158      C1174   1.267       .  A
O1158     Zn1164   1.985       .  S
C1159      C1226   1.511       .  S
C1159      O1175   1.268       .  A
C1159      O1172   1.286       .  A
O1160      C1173   1.283       .  A
O1160     Cd1167   2.128       .  S
O1161      C1179   1.273       .  A
O1161     Cd1170   2.054       .  S
O1162      C1176   1.275       .  A
O1162     Cd1166   2.046       .  S
O1163      C1174   1.278       .  A
O1163     Cd1166   2.109       .  S
Zn1164     O1175   1.995       .  S
Zn1164     O1177   1.872       .  S
Zn1164     O1169   1.934       .  S
O1165      C1176   1.281       .  A
O1165     Cd1170   2.085       .  S
Cd1166     O1168   2.070       .  S
Cd1166     O1169   1.970       .  S
Cd1167     O1499   2.127       .  S
Cd1167     O1180   2.095       .  S
Cd1167     O1169   2.026       .  S
O1168      C1506   1.269       .  A
O1169     Cd1170   2.001       .  S
Cd1170     O1172   2.166       .  S
O1171      C1178   1.279       .  A
O1171     Cd1823   2.127   1_545  S
C1173      C1183   1.463       .  S
C1173      O1177   1.257       .  A
C1174      C1281   1.490       .  S
C1178      C1194   1.493       .  S
C1178      O1824   1.269   1_545  A
C1179      C1272   1.480       .  S
C1179      O1180   1.280       .  A
C1181      C1182   1.405       .  A
C1181      C1186   1.414       .  A
C1181      C1634   1.483       .  S
C1182      C1183   1.398       .  A
C1182      H1515   1.084       .  S
C1183      C1184   1.414       .  A
C1184      C1185   1.399       .  A
C1184      H1188   1.085       .  S
C1185      C1186   1.381       .  A
C1185      C1215   1.501       .  S
H1187      C1838   1.084   1_545  S
C1190      C1191   1.399       .  A
C1190      C1195   1.418       .  A
C1190      C1256   1.495       .  S
C1191      C1192   1.401       .  A
C1191      H1196   1.085       .  S
C1192      C1193   1.418       .  A
C1192      C1217   1.477       .  S
C1193      C1194   1.406       .  A
C1193      H1197   1.084       .  S
C1194      C1195   1.391       .  A
C1195      H1198   1.060       .  S
O1199      C1215   1.261       .  A
O1199     Zn1205   1.960       .  S
C1200      C1263   1.476       .  S
C1200      O1216   1.262       .  A
C1200      O1213   1.281       .  A
O1201      C1542   1.291       .  A
O1201     Cd1208   2.200       .  S
O1202      C1220   1.270       .  A
O1202     Cd1539   2.066       .  S
O1203      C1217   1.281       .  A
O1203     Cd1207   2.072       .  S
O1204     Cd1207   2.149   1_455  S
Zn1205     O1216   1.949       .  S
Zn1205     O1218   1.855       .  S
Zn1205     O1210   1.926       .  S
O1206      C1217   1.275       .  A
O1206     Cd1211   2.052       .  S
Cd1207     O1209   2.084       .  S
Cd1208     O1538   2.019       .  S
O1209      C1219   1.274       .  A
O1210     Cd1864   2.019   1_545  S
Cd1211     O1858   2.066   1_545  S
O1212      C1547   1.287       .  A
C1214      C1224   1.485       .  S
C1214      O1857   1.291   1_545  A
C1214      O1218   1.253       .  A
C1219      C1887   1.509   1_545  S
C1219      O1868   1.287   1_545  A
C1220      O1221   1.284       .  A
C1222      C1223   1.415       .  A
C1222      C1555   1.400       .  A
C1222      C1261   1.483       .  S
C1223      C1552   1.404       .  A
C1223      H1228   1.084       .  S
C1224      C1879   1.404   1_545  A
C1224      C1225   1.420       .  A
C1225      C1226   1.410       .  A
C1225      H1229   1.084       .  S
C1226      C1227   1.395       .  A
C1227      C1878   1.400   1_545  A
C1227      H1230   1.062       .  S
C1231      C1232   1.424       .  A
C1231      C1236   1.403       .  A
C1231      C1547   1.509       .  S
C1232      C1233   1.385       .  A
C1233      C1234   1.399       .  A
C1233      C1310   1.499       .  S
C1234      C1235   1.420       .  A
C1234      H1238   1.084       .  S
C1235      C1236   1.402       .  A
C1235      C1255   1.461       .  S
C1236      H1567   1.084       .  S
H1239      C1892   1.084   1_545  S
O1240      C1256   1.266       .  A
O1240     Zn1246   1.977       .  S
C1241      C1276   1.498       .  S
C1241      O1257   1.265       .  A
O1242      C1255   1.287       .  A
O1242     Cd1249   2.144       .  S
O1243      C1261   1.271       .  A
O1243     Cd1252   2.050       .  S
O1244      C1258   1.274       .  A
O1244     Cd1248   2.044       .  S
O1245      C1256   1.279       .  A
O1245     Cd1248   2.123       .  S
Zn1246     O1257   1.975       .  S
Zn1246     O1259   1.871       .  S
Zn1246     O1251   1.933       .  S
O1247     Cd1252   2.066       .  S
Cd1248     O1250   2.075       .  S
Cd1248     O1251   1.972       .  S
Cd1249     O1581   2.143       .  S
Cd1249     O1251   2.018       .  S
O1250      C1588   1.271       .  A
Cd1252     O1254   2.142       .  S
O1253      C1260   1.282       .  A
O1253     Cd1905   2.143   1_545  S
C1255      O1259   1.255       .  A
C1258      C1267   1.478       .  S
C1260      C1283   1.499       .  S
C1260      O1906   1.271   1_545  A
C1261      O1262   1.282       .  A
C1263      C1264   1.404       .  A
C1263      C1268   1.400       .  A
C1264      C1265   1.381       .  A
C1266      C1267   1.417       .  A
C1266      H1270   1.083       .  S
C1268      H1271   1.084       .  S
C1272      C1273   1.408       .  A
C1272      C1605   1.394       .  A
C1273      H1278   1.084       .  S
C1274      C1603   1.414       .  A
C1274      C1636   1.487       .  S
C1275      C1930   1.414       .  A
C1275      C1276   1.411       .  A
C1275      H1279   1.083       .  S
C1277      C1928   1.394   1_545  A
C1277      H1280   1.057       .  S
C1281      C1282   1.417       .  A
C1281      C1286   1.403       .  A
C1282      C1283   1.386       .  A
C1282      H1287   1.058       .  S
C1283      C1284   1.407       .  A
C1284      C1285   1.425       .  A
C1284      H1288   1.084       .  S
C1285      C1286   1.399       .  A
C1285      C1305   1.471       .  S
C1286      H1289   1.085       .  S
O1290      C1634   1.262       .  A
O1290     Zn1624   1.949       .  S
C1291      O1307   1.260       .  A
O1292      C1305   1.289       .  A
O1292     Cd1299   2.173       .  S
O1293      C1311   1.275       .  A
O1293     Cd1302   2.089       .  S
O1294      C1308   1.280       .  A
O1294     Cd1298   2.071       .  S
O1295      C1306   1.283       .  A
Zn1296     O1946   1.949   1_545  S
Zn1296     O1963   1.956   1_545  S
Zn1296     O1309   1.853       .  S
Zn1296     O1301   1.939       .  S
O1297     Cd1302   2.085   1_565  S
Cd1298     O1300   2.069       .  S
Cd1299     O1301   2.018       .  S
O1300      C1310   1.271       .  A
Cd1302     O1960   2.139   1_645  S
O1303      C1310   1.284       .  A
O1304     Cd1630   2.139   1_455  S
C1305      O1309   1.250       .  A
C1306      C1837   1.483   1_545  S
C1306      O1946   1.262   1_545  A
O1307     Zn1624   1.956       .  S
C1308      C1930   1.487       .  S
C1311      O1312   1.283       .  A
C1313      C1314   1.403       .  A
C1313      C1318   1.417       .  A
C1313      C1475   1.504       .  S
C1314      C1315   1.408       .  A
C1314      H1319   1.084       .  S
C1315      C1316   1.422       .  A
C1315      C1340   1.483       .  S
C1316      C1317   1.404       .  A
C1316      H1320   1.084       .  S
C1317      C1318   1.386       .  A
C1317      C1384   1.498       .  S
O1322      C1338   1.267       .  A
O1322     Zn1328   1.985       .  S
C1323      C1390   1.511       .  S
C1323      O1339   1.268       .  A
C1323      O1336   1.286       .  A
O1324      C1337   1.283       .  A
O1324     Cd1331   2.128       .  S
O1325      C1343   1.273       .  A
O1325     Cd1334   2.054       .  S
O1326      C1340   1.275       .  A
O1326     Cd1330   2.046       .  S
O1327      C1338   1.278       .  A
O1327     Cd1330   2.109       .  S
Zn1328     O1339   1.995       .  S
Zn1328     O1341   1.872       .  S
Zn1328     O1333   1.934       .  S
O1329      C1340   1.281       .  A
O1329     Cd1334   2.085       .  S
Cd1330     O1332   2.070       .  S
Cd1330     O1333   1.970       .  S
Cd1331     O1663   2.127       .  S
Cd1331     O1344   2.095       .  S
Cd1331     O1333   2.026       .  S
O1332      C1670   1.269       .  A
O1333     Cd1334   2.001       .  S
Cd1334     O1336   2.166       .  S
O1335      C1342   1.279       .  A
C1337      C1347   1.463       .  S
C1337      O1341   1.257       .  A
C1338      C1445   1.490       .  S
C1342      C1358   1.493       .  S
C1343      C1436   1.480       .  S
C1343      O1344   1.280       .  A
C1345      C1346   1.405       .  A
C1345      C1350   1.414       .  A
C1345      C1798   1.483       .  S
C1346      C1347   1.398       .  A
C1346      H1679   1.084       .  S
C1347      C1348   1.414       .  A
C1348      C1349   1.399       .  A
C1348      H1352   1.085       .  S
C1349      C1350   1.380       .  A
C1349      C1379   1.501       .  S
C1354      C1355   1.399       .  A
C1354      C1359   1.418       .  A
C1354      C1420   1.495       .  S
C1355      C1356   1.401       .  A
C1355      H1360   1.085       .  S
C1356      C1357   1.418       .  A
C1356      C1381   1.477       .  S
C1357      C1358   1.406       .  A
C1357      H1361   1.084       .  S
C1358      C1359   1.391       .  A
C1359      H1362   1.060       .  S
O1363      C1379   1.261       .  A
O1363     Zn1369   1.960       .  S
C1364      C1427   1.476       .  S
C1364      O1380   1.262       .  A
C1364      O1377   1.281       .  A
O1365      C1706   1.291       .  A
O1365     Cd1372   2.200       .  S
O1366      C1384   1.270       .  A
O1366     Cd1703   2.066       .  S
O1367      C1381   1.281       .  A
O1367     Cd1371   2.072       .  S
O1368     Cd1371   2.149   1_455  S
Zn1369     O1380   1.949       .  S
Zn1369     O1382   1.855       .  S
Zn1369     O1374   1.926       .  S
O1370      C1381   1.275       .  A
O1370     Cd1375   2.052       .  S
Cd1371     O1373   2.084       .  S
Cd1372     O1702   2.019       .  S
O1373      C1383   1.274       .  A
O1376      C1711   1.287       .  A
C1378      C1388   1.485       .  S
C1378      O1382   1.253       .  A
C1384      O1385   1.284       .  A
C1386      C1387   1.415       .  A
C1386      C1719   1.400       .  A
C1386      C1425   1.483       .  S
C1387      C1716   1.404       .  A
C1387      H1392   1.084       .  S
C1388      C1389   1.420       .  A
C1389      C1390   1.410       .  A
C1389      H1393   1.084       .  S
C1390      C1391   1.395       .  A
C1391      H1394   1.061       .  S
C1395      C1396   1.424       .  A
C1395      C1400   1.403       .  A
C1395      C1711   1.509       .  S
C1396      C1397   1.385       .  A
C1397      C1398   1.399       .  A
C1397      C1474   1.499       .  S
C1398      C1399   1.420       .  A
C1398      H1402   1.084       .  S
C1399      C1400   1.402       .  A
C1399      C1419   1.461       .  S
C1400      H1731   1.084       .  S
O1404      C1420   1.266       .  A
O1404     Zn1410   1.977       .  S
C1405      C1440   1.498       .  S
C1405      O1421   1.265   1_556  A
C1405      O1582   1.283       .  A
O1406      C1419   1.287       .  A
O1406     Cd1413   2.144       .  S
O1407      C1425   1.271       .  A
O1407     Cd1416   2.050       .  S
O1408      C1422   1.274       .  A
O1408     Cd1412   2.044       .  S
O1409      C1420   1.279       .  A
O1409     Cd1412   2.123       .  S
Zn1410     O1421   1.975       .  S
Zn1410     O1423   1.871       .  S
Zn1410     O1415   1.933       .  S
O1411      C1586   1.279       .  A
O1411     Cd1416   2.066       .  S
Cd1412     O1414   2.075       .  S
Cd1412     O1415   1.972       .  S
Cd1413     O1745   2.143       .  S
Cd1413     O1590   2.104   1_554  S
Cd1413     O1415   2.018       .  S
O1414      C1752   1.271       .  A
O1415     Cd1580   2.001   1_554  S
Cd1416     O1418   2.142       .  S
Cd1416     O1579   2.001       .  S
O1417      C1424   1.282       .  A
O1418      C1569   1.283       .  A
C1419      O1423   1.255       .  A
C1422      C1431   1.478   1_554  S
C1422      O1575   1.279   1_554  A
C1424      C1447   1.499       .  S
C1425      O1426   1.282       .  A
O1426     Cd1577   2.104       .  S
C1427      C1428   1.404       .  A
C1427      C1432   1.400       .  A
C1428      C1429   1.381       .  A
C1429      C1594   1.408       .  A
C1429      C1619   1.495       .  S
C1430      C1593   1.408   1_554  A
C1430      C1431   1.417   1_554  A
C1430      H1434   1.083       .  S
C1431      C1596   1.401       .  A
C1432      C1595   1.401       .  A
C1432      H1435   1.084       .  S
C1436      C1437   1.408       .  A
C1436      C1769   1.395       .  A
C1437      C1602   1.407       .  A
C1437      H1442   1.084       .  S
C1438      C1601   1.407       .  A
C1438      C1767   1.414   1_556  A
C1438      C1800   1.487   1_556  S
C1439      C1440   1.411   1_554  A
C1439      H1443   1.083       .  S
C1440      C1605   1.394       .  A
C1441      C1604   1.394       .  A
C1441      H1444   1.056       .  S
C1445      C1446   1.417       .  A
C1445      C1450   1.403       .  A
C1446      C1447   1.386       .  A
C1446      H1451   1.058       .  S
C1447      C1448   1.407       .  A
C1448      C1449   1.425       .  A
C1448      H1452   1.084       .  S
C1449      C1450   1.399       .  A
C1449      C1469   1.471       .  S
C1450      H1453   1.085       .  S
O1454      C1798   1.262       .  A
O1454     Zn1788   1.949       .  S
C1455      C1593   1.495   1_554  S
C1455      O1471   1.260       .  A
O1456      C1469   1.289       .  A
O1456     Cd1463   2.173       .  S
O1457      C1475   1.275       .  A
O1457     Cd1466   2.089       .  S
O1458      C1472   1.280       .  A
O1458     Cd1462   2.071       .  S
O1459      C1470   1.283       .  A
Zn1460     O1473   1.853       .  S
Zn1460     O1465   1.939       .  S
O1461      C1636   1.281       .  A
O1461     Cd1466   2.085       .  S
Cd1462     O1464   2.069       .  S
Cd1463     O1465   2.018       .  S
O1464      C1474   1.271       .  A
O1467      C1474   1.284       .  A
O1468     Cd1794   2.139   1_455  S
C1469      O1473   1.250       .  A
O1471     Zn1788   1.956       .  S
C1472      O1625   1.281   1_554  A
C1475      O1476   1.283       .  A
C1477      C1478   1.403       .  A
C1477      C1482   1.417       .  A
C1477      C1639   1.504       .  S
C1478      C1479   1.408       .  A
C1478      H1483   1.084       .  S
C1479      C1480   1.422       .  A
C1479      C1504   1.483       .  S
C1480      C1481   1.404       .  A
C1480      H1484   1.084       .  S
C1481      C1482   1.386       .  A
C1481      C1548   1.498       .  S
O1486      C1502   1.267       .  A
O1486     Zn1492   1.985       .  S
C1487      C1554   1.511       .  S
C1487      O1503   1.268       .  A
C1487      O1500   1.286       .  A
O1488      C1501   1.283       .  A
O1488     Cd1495   2.128       .  S
O1489      C1507   1.273       .  A
O1489     Cd1498   2.054       .  S
O1490      C1504   1.275       .  A
O1490     Cd1494   2.046       .  S
O1491      C1502   1.278       .  A
O1491     Cd1494   2.109       .  S
Zn1492     O1503   1.995       .  S
Zn1492     O1505   1.872       .  S
Zn1492     O1497   1.934       .  S
O1493      C1504   1.281       .  A
O1493     Cd1498   2.085       .  S
Cd1494     O1496   2.070       .  S
Cd1494     O1497   1.970       .  S
Cd1495     O1827   2.127       .  S
Cd1495     O1508   2.095       .  S
Cd1495     O1497   2.026       .  S
O1496      C1834   1.269       .  A
O1497     Cd1498   2.001       .  S
Cd1498     O1500   2.166       .  S
O1499      C1506   1.279       .  A
C1501      C1511   1.463       .  S
C1501      O1505   1.257       .  A
C1502      C1609   1.490       .  S
C1506      C1522   1.493       .  S
C1507      C1600   1.480       .  S
C1507      O1508   1.280       .  A
C1509      C1510   1.405       .  A
C1509      C1514   1.414       .  A
C1509      C1962   1.483       .  S
C1510      C1511   1.398       .  A
C1510      H1843   1.084       .  S
C1511      C1512   1.414       .  A
C1512      C1513   1.399       .  A
C1512      H1516   1.085       .  S
C1513      C1514   1.380       .  A
C1513      C1543   1.501       .  S
C1518      C1519   1.399       .  A
C1518      C1523   1.418       .  A
C1518      C1584   1.495       .  S
C1519      C1520   1.401       .  A
C1519      H1524   1.085       .  S
C1520      C1521   1.418       .  A
C1520      C1545   1.477       .  S
C1521      C1522   1.406       .  A
C1521      H1525   1.084       .  S
C1522      C1523   1.391       .  A
C1523      H1526   1.060       .  S
O1527      C1543   1.261       .  A
O1527     Zn1533   1.960       .  S
C1528      C1591   1.476       .  S
C1528      O1544   1.262       .  A
C1528      O1541   1.281       .  A
O1529      C1870   1.291       .  A
O1529     Cd1536   2.200       .  S
O1530      C1548   1.270       .  A
O1530     Cd1867   2.066       .  S
O1531      C1545   1.281       .  A
O1531     Cd1535   2.072       .  S
O1532     Cd1535   2.149   1_455  S
Zn1533     O1544   1.949       .  S
Zn1533     O1546   1.855       .  S
Zn1533     O1538   1.926       .  S
O1534      C1545   1.275       .  A
O1534     Cd1539   2.052       .  S
Cd1535     O1537   2.084       .  S
Cd1536     O1866   2.019       .  S
O1537      C1547   1.274       .  A
O1540      C1875   1.287       .  A
C1542      C1552   1.485       .  S
C1542      O1546   1.253       .  A
C1548      O1549   1.284       .  A
C1550      C1551   1.415       .  A
C1550      C1883   1.400       .  A
C1550      C1589   1.483       .  S
C1551      C1880   1.404       .  A
C1551      H1556   1.084       .  S
C1552      C1553   1.420       .  A
C1553      C1554   1.410       .  A
C1553      H1557   1.084       .  S
C1554      C1555   1.395       .  A
C1555      H1558   1.062       .  S
C1559      C1560   1.424       .  A
C1559      C1564   1.403       .  A
C1559      C1875   1.509       .  S
C1560      C1561   1.385       .  A
C1561      C1562   1.399       .  A
C1561      C1638   1.499       .  S
C1562      C1563   1.420       .  A
C1562      H1566   1.084       .  S
C1563      C1564   1.402       .  A
C1563      C1583   1.461       .  S
C1564      H1895   1.084       .  S
O1568      C1584   1.266       .  A
O1568     Zn1574   1.977       .  S
C1569      C1604   1.498       .  S
C1569      O1585   1.265       .  A
O1570      C1583   1.287       .  A
O1570     Cd1577   2.144       .  S
O1571      C1589   1.271       .  A
O1571     Cd1580   2.050       .  S
O1572      C1586   1.274       .  A
O1572     Cd1576   2.044       .  S
O1573      C1584   1.279       .  A
O1573     Cd1576   2.123       .  S
Zn1574     O1585   1.975       .  S
Zn1574     O1587   1.871       .  S
Zn1574     O1579   1.933       .  S
O1575     Cd1580   2.066       .  S
Cd1576     O1578   2.075       .  S
Cd1576     O1579   1.972       .  S
Cd1577     O1909   2.143       .  S
Cd1577     O1579   2.018       .  S
O1578      C1916   1.271       .  A
Cd1580     O1582   2.142       .  S
O1581      C1588   1.282       .  A
C1583      O1587   1.255       .  A
C1586      C1595   1.478       .  S
C1588      C1611   1.499       .  S
C1589      O1590   1.282       .  A
C1591      C1592   1.404       .  A
C1591      C1596   1.400       .  A
C1592      C1593   1.381       .  A
C1594      C1595   1.417       .  A
C1594      H1598   1.083       .  S
C1596      H1599   1.084       .  S
C1600      C1601   1.408       .  A
C1600      C1933   1.394       .  A
C1601      H1606   1.084       .  S
C1602      C1931   1.414       .  A
C1602      C1964   1.487       .  S
C1603      C1604   1.411       .  A
C1603      H1607   1.083       .  S
C1605      H1608   1.057       .  S
C1609      C1610   1.417       .  A
C1609      C1614   1.403       .  A
C1610      C1611   1.386       .  A
C1610      H1615   1.058       .  S
C1611      C1612   1.407       .  A
C1612      C1613   1.425       .  A
C1612      H1616   1.084       .  S
C1613      C1614   1.399       .  A
C1613      C1633   1.471       .  S
C1614      H1617   1.085       .  S
O1618      C1962   1.262       .  A
O1618     Zn1952   1.949       .  S
C1619      O1635   1.260       .  A
O1620      C1633   1.289       .  A
O1620     Cd1627   2.173       .  S
O1621      C1639   1.275       .  A
O1621     Cd1630   2.089       .  S
O1622      C1636   1.280       .  A
O1622     Cd1626   2.071       .  S
O1623      C1634   1.283       .  A
Zn1624     O1637   1.853       .  S
Zn1624     O1629   1.939       .  S
O1625     Cd1630   2.085       .  S
Cd1626     O1628   2.069       .  S
Cd1627     O1629   2.018       .  S
O1628      C1638   1.271       .  A
O1631      C1638   1.284       .  A
O1632     Cd1958   2.139   1_455  S
C1633      O1637   1.250       .  A
O1635     Zn1952   1.956       .  S
C1639      O1640   1.283       .  A
C1641      C1642   1.403       .  A
C1641      C1646   1.417       .  A
C1641      C1803   1.504       .  S
C1642      C1643   1.408       .  A
C1642      H1647   1.084       .  S
C1643      C1644   1.422       .  A
C1643      C1668   1.483       .  S
C1644      C1645   1.404       .  A
C1644      H1648   1.084       .  S
C1645      C1646   1.386       .  A
C1645      C1712   1.498       .  S
O1650      C1666   1.267       .  A
O1650     Zn1656   1.985       .  S
C1651      C1718   1.511       .  S
C1651      O1667   1.268       .  A
C1651      O1664   1.286       .  A
O1652      C1665   1.283       .  A
O1652     Cd1659   2.128       .  S
O1653      C1671   1.273       .  A
O1653     Cd1662   2.054       .  S
O1654      C1668   1.275       .  A
O1654     Cd1658   2.046       .  S
O1655      C1666   1.278       .  A
O1655     Cd1658   2.109       .  S
Zn1656     O1667   1.995       .  S
Zn1656     O1669   1.872       .  S
Zn1656     O1661   1.934       .  S
O1657      C1668   1.281       .  A
O1657     Cd1662   2.085       .  S
Cd1658     O1660   2.070       .  S
Cd1658     O1661   1.970       .  S
Cd1659     O1672   2.095       .  S
Cd1659     O1661   2.026       .  S
O1661     Cd1662   2.001       .  S
Cd1662     O1664   2.166       .  S
O1663      C1670   1.279       .  A
C1665      C1675   1.463       .  S
C1665      O1669   1.257       .  A
C1666      C1773   1.490       .  S
C1670      C1686   1.493       .  S
C1671      C1764   1.480       .  S
C1671      O1672   1.280       .  A
C1673      C1674   1.405       .  A
C1673      C1678   1.414       .  A
C1674      C1675   1.398       .  A
C1675      C1676   1.414       .  A
C1676      C1677   1.399       .  A
C1676      H1680   1.085       .  S
C1677      C1678   1.380       .  A
C1677      C1707   1.501       .  S
C1682      C1683   1.399       .  A
C1682      C1687   1.418       .  A
C1682      C1748   1.495       .  S
C1683      C1684   1.401       .  A
C1683      H1688   1.085       .  S
C1684      C1685   1.418       .  A
C1684      C1709   1.477       .  S
C1685      C1686   1.406       .  A
C1685      H1689   1.084       .  S
C1686      C1687   1.391       .  A
C1687      H1690   1.060       .  S
O1691      C1707   1.261       .  A
O1691     Zn1697   1.960       .  S
C1692      C1755   1.476       .  S
C1692      O1708   1.262       .  A
C1692      O1705   1.281       .  A
O1693     Cd1700   2.200       .  S
O1694      C1712   1.270       .  A
O1695      C1709   1.281       .  A
O1695     Cd1699   2.072       .  S
O1696     Cd1699   2.149   1_455  S
Zn1697     O1708   1.949       .  S
Zn1697     O1710   1.855       .  S
Zn1697     O1702   1.926       .  S
O1698      C1709   1.275       .  A
O1698     Cd1703   2.052       .  S
Cd1699     O1701   2.084       .  S
O1701      C1711   1.274       .  A
C1706      C1716   1.485       .  S
C1706      O1710   1.253       .  A
C1712      O1713   1.284       .  A
C1714      C1715   1.415       .  A
C1714      C1753   1.483       .  S
C1715      H1720   1.084       .  S
C1716      C1717   1.420       .  A
C1717      C1718   1.410       .  A
C1717      H1721   1.084       .  S
C1718      C1719   1.395       .  A
C1719      H1722   1.061       .  S
C1723      C1724   1.424       .  A
C1723      C1728   1.403       .  A
C1724      C1725   1.385       .  A
C1725      C1726   1.399       .  A
C1725      C1802   1.499       .  S
C1726      C1727   1.420       .  A
C1726      H1730   1.084       .  S
C1727      C1728   1.402       .  A
C1727      C1747   1.461       .  S
O1732      C1748   1.266       .  A
O1732     Zn1738   1.977       .  S
C1733      C1768   1.498       .  S
C1733      O1749   1.265   1_556  A
C1733      O1910   1.283       .  A
O1734      C1747   1.287       .  A
O1734     Cd1741   2.144       .  S
O1735      C1753   1.271       .  A
O1735     Cd1744   2.050       .  S
O1736      C1750   1.274       .  A
O1736     Cd1740   2.044       .  S
O1737      C1748   1.279       .  A
O1737     Cd1740   2.123       .  S
Zn1738     O1749   1.975       .  S
Zn1738     O1751   1.871       .  S
Zn1738     O1743   1.933       .  S
O1739      C1914   1.279       .  A
O1739     Cd1744   2.066       .  S
Cd1740     O1742   2.075       .  S
Cd1740     O1743   1.972       .  S
Cd1741     O1918   2.104   1_554  S
Cd1741     O1743   2.018       .  S
O1743     Cd1908   2.001   1_554  S
Cd1744     O1746   2.142       .  S
Cd1744     O1907   2.001       .  S
O1745      C1752   1.282       .  A
O1746      C1897   1.283       .  A
C1747      O1751   1.255       .  A
C1750      C1759   1.478   1_554  S
C1750      O1903   1.279   1_554  A
C1752      C1775   1.499       .  S
C1753      O1754   1.282       .  A
O1754     Cd1905   2.104       .  S
C1755      C1756   1.404       .  A
C1755      C1760   1.400       .  A
C1756      C1757   1.381       .  A
C1757      C1922   1.408       .  A
C1757      C1947   1.495       .  S
C1758      C1921   1.408   1_554  A
C1758      C1759   1.417   1_554  A
C1758      H1762   1.083       .  S
C1759      C1924   1.401       .  A
C1760      C1923   1.401       .  A
C1760      H1763   1.084       .  S
C1764      C1765   1.408       .  A
C1765      C1930   1.407   1_565  A
C1765      H1770   1.084       .  S
C1766      C1929   1.407   1_545  A
C1767      C1768   1.411   1_554  A
C1767      H1771   1.083       .  S
C1768      C1933   1.394       .  A
C1769      C1932   1.394       .  A
C1769      H1772   1.056       .  S
C1773      C1774   1.417       .  A
C1773      C1778   1.403       .  A
C1774      C1775   1.386       .  A
C1774      H1779   1.058       .  S
C1775      C1776   1.407       .  A
C1776      C1777   1.425       .  A
C1776      H1780   1.084       .  S
C1777      C1778   1.399       .  A
C1777      C1797   1.471       .  S
C1778      H1781   1.085       .  S
C1783      C1921   1.495   1_554  S
C1783      O1799   1.260       .  A
O1784      C1797   1.289       .  A
O1784     Cd1791   2.173       .  S
O1785      C1803   1.275       .  A
O1785     Cd1794   2.089       .  S
O1786      C1800   1.280       .  A
O1786     Cd1790   2.071       .  S
O1787      C1798   1.283       .  A
Zn1788     O1801   1.853       .  S
Zn1788     O1793   1.939       .  S
O1789      C1964   1.281       .  A
O1789     Cd1794   2.085       .  S
Cd1790     O1792   2.069       .  S
Cd1791     O1793   2.018       .  S
O1792      C1802   1.271       .  A
O1795      C1802   1.284       .  A
C1797      O1801   1.250       .  A
C1800      O1953   1.281   1_554  A
C1803      O1804   1.283       .  A
C1805      C1806   1.403       .  A
C1805      C1810   1.417       .  A
C1805      C1967   1.504       .  S
C1806      C1807   1.408       .  A
C1806      H1811   1.084       .  S
C1807      C1808   1.422       .  A
C1807      C1832   1.483       .  S
C1808      C1809   1.404       .  A
C1808      H1812   1.084       .  S
C1809      C1810   1.386       .  A
C1809      C1876   1.498       .  S
O1814      C1830   1.267       .  A
O1814     Zn1820   1.985       .  S
C1815      C1882   1.511       .  S
C1815      O1831   1.268       .  A
C1815      O1828   1.286       .  A
O1816      C1829   1.283       .  A
O1816     Cd1823   2.128       .  S
O1817      C1835   1.273       .  A
O1817     Cd1826   2.054       .  S
O1818      C1832   1.275       .  A
O1818     Cd1822   2.046       .  S
O1819      C1830   1.278       .  A
O1819     Cd1822   2.109       .  S
Zn1820     O1831   1.995       .  S
Zn1820     O1833   1.872       .  S
Zn1820     O1825   1.934       .  S
O1821      C1832   1.281       .  A
O1821     Cd1826   2.085       .  S
Cd1822     O1824   2.070       .  S
Cd1822     O1825   1.970       .  S
Cd1823     O1836   2.095       .  S
Cd1823     O1825   2.026       .  S
O1825     Cd1826   2.001       .  S
Cd1826     O1828   2.166       .  S
O1827      C1834   1.279       .  A
C1829      C1839   1.463       .  S
C1829      O1833   1.257       .  A
C1830      C1937   1.490       .  S
C1834      C1850   1.493       .  S
C1835      C1928   1.480       .  S
C1835      O1836   1.280       .  A
C1837      C1838   1.405       .  A
C1837      C1842   1.414       .  A
C1838      C1839   1.398       .  A
C1839      C1840   1.414       .  A
C1840      C1841   1.399       .  A
C1840      H1844   1.085       .  S
C1841      C1842   1.381       .  A
C1841      C1871   1.501       .  S
C1846      C1847   1.399       .  A
C1846      C1851   1.418       .  A
C1846      C1912   1.495       .  S
C1847      C1848   1.401       .  A
C1847      H1852   1.085       .  S
C1848      C1849   1.418       .  A
C1848      C1873   1.477       .  S
C1849      C1850   1.406       .  A
C1849      H1853   1.084       .  S
C1850      C1851   1.391       .  A
C1851      H1854   1.060       .  S
O1855      C1871   1.261       .  A
O1855     Zn1861   1.960       .  S
C1856      C1919   1.476       .  S
C1856      O1872   1.262       .  A
C1856      O1869   1.281       .  A
O1857     Cd1864   2.200       .  S
O1858      C1876   1.270       .  A
O1859      C1873   1.281       .  A
O1859     Cd1863   2.072       .  S
O1860     Cd1863   2.149   1_455  S
Zn1861     O1872   1.949       .  S
Zn1861     O1874   1.855       .  S
Zn1861     O1866   1.926       .  S
O1862      C1873   1.275       .  A
O1862     Cd1867   2.052       .  S
Cd1863     O1865   2.084       .  S
O1865      C1875   1.274       .  A
C1870      C1880   1.485       .  S
C1870      O1874   1.253       .  A
C1876      O1877   1.284       .  A
C1878      C1879   1.415       .  A
C1878      C1917   1.483       .  S
C1879      H1884   1.084       .  S
C1880      C1881   1.420       .  A
C1881      C1882   1.410       .  A
C1881      H1885   1.084       .  S
C1882      C1883   1.395       .  A
C1883      H1886   1.062       .  S
C1887      C1888   1.424       .  A
C1887      C1892   1.403       .  A
C1888      C1889   1.385       .  A
C1889      C1890   1.399       .  A
C1889      C1966   1.499       .  S
C1890      C1891   1.420       .  A
C1890      H1894   1.084       .  S
C1891      C1892   1.402       .  A
C1891      C1911   1.461       .  S
O1896      C1912   1.266       .  A
O1896     Zn1902   1.977       .  S
C1897      C1932   1.498       .  S
C1897      O1913   1.265       .  A
O1898      C1911   1.287       .  A
O1898     Cd1905   2.144       .  S
O1899      C1917   1.271       .  A
O1899     Cd1908   2.050       .  S
O1900      C1914   1.274       .  A
O1900     Cd1904   2.044       .  S
O1901      C1912   1.279       .  A
O1901     Cd1904   2.123       .  S
Zn1902     O1913   1.975       .  S
Zn1902     O1915   1.871       .  S
Zn1902     O1907   1.933       .  S
O1903     Cd1908   2.066       .  S
Cd1904     O1906   2.075       .  S
Cd1904     O1907   1.972       .  S
Cd1905     O1907   2.018       .  S
Cd1908     O1910   2.142       .  S
O1909      C1916   1.282       .  A
C1911      O1915   1.255       .  A
C1914      C1923   1.478       .  S
C1916      C1939   1.499       .  S
C1917      O1918   1.282       .  A
C1919      C1920   1.404       .  A
C1919      C1924   1.400       .  A
C1920      C1921   1.381       .  A
C1922      C1923   1.417       .  A
C1922      H1926   1.083       .  S
C1924      H1927   1.084       .  S
C1928      C1929   1.408       .  A
C1929      H1934   1.084       .  S
C1931      C1932   1.411       .  A
C1931      H1935   1.083       .  S
C1933      H1936   1.057       .  S
C1937      C1938   1.417       .  A
C1937      C1942   1.403       .  A
C1938      C1939   1.386       .  A
C1938      H1943   1.058       .  S
C1939      C1940   1.407       .  A
C1940      C1941   1.425       .  A
C1940      H1944   1.084       .  S
C1941      C1942   1.399       .  A
C1941      C1961   1.471       .  S
C1942      H1945   1.085       .  S
C1947      O1963   1.260       .  A
O1948      C1961   1.289       .  A
O1948     Cd1955   2.173       .  S
O1949      C1967   1.275       .  A
O1949     Cd1958   2.089       .  S
O1950      C1964   1.280       .  A
O1950     Cd1954   2.071       .  S
O1951      C1962   1.283       .  A
Zn1952     O1965   1.853       .  S
Zn1952     O1957   1.939       .  S
O1953     Cd1958   2.085       .  S
Cd1954     O1956   2.069       .  S
Cd1955     O1957   2.018       .  S
O1956      C1966   1.271       .  A
O1959      C1966   1.284       .  A
C1961      O1965   1.250       .  A
C1967      O1968   1.283       .  A
