geometry optimzed in LAMMPS
_audit_creation_date              2020-11-30 
_audit_creation_method            'lammps2cif' 
_symmetry_space_group_name_H-M    'P1' 
_symmetry_Int_Tables_number       1 
_symmetry_cell_setting            triclinic 
loop_ 
_symmetry_equiv_pos_as_xyz 
  x,y,z 
_cell_length_a                    38.00152251 
_cell_length_b                    37.94566818847522 
_cell_length_c                    46.33231451386195 
_cell_angle_alpha                 89.91222559331902 
_cell_angle_beta                  90.32021655529377 
_cell_angle_gamma                 90.08103147218937 
loop_ 
_atom_site_label 
_atom_site_type_symbol 
_atom_site_fract_x 
_atom_site_fract_y 
_atom_site_fract_z 
_atom_site_charge 
C1          C  0.48154032  0.84079254  0.26510576     0.03500
C2          C  0.48021990  0.87770859  0.26540290    -0.12700
C3          C  0.50576904  0.89757521  0.25091244     0.01000
C4          C  0.53335499  0.88035371  0.23672261    -0.11200
C5          C  0.53537113  0.84337987  0.23661929     0.03500
C6          C  0.50891532  0.82385475  0.25046449    -0.10600
H7          H  0.45937564  0.89102016  0.27692599     0.09100
H8          H  0.55363349  0.89584079  0.22630712     0.06600
H9          H  0.50920402  0.79534240  0.24955313     0.06400
C10         C  0.86966802  0.48738554  0.77110420     0.03500
C11         C  0.90653599  0.48709839  0.76955863    -0.12700
C12         C  0.92418574  0.46030844  0.75464375     0.01000
C13         C  0.90465326  0.43334237  0.74133299    -0.11200
C14         C  0.86777946  0.43348088  0.74250379     0.03500
C15         C  0.85046720  0.46054636  0.75729856    -0.10600
H16         H  0.92156761  0.50841368  0.77911577     0.09100
H17         H  0.91806217  0.41259232  0.72972212     0.06600
H18         H  0.82196624  0.46057833  0.75812409     0.06400
C19         C  0.52366457  0.83125299  0.76735293     0.03500
C20         C  0.52227135  0.86827686  0.76766806    -0.12700
C21         C  0.49546723  0.88633280  0.75279462     0.01000
C22         C  0.46997010  0.86710428  0.73744868    -0.11200
C23         C  0.47118560  0.83022032  0.73680529     0.03500
C24         C  0.49805913  0.81246419  0.75166019    -0.10600
H25         H  0.54263769  0.88310729  0.77872519     0.09100
H26         H  0.44937052  0.88086127  0.72574156     0.06600
H27         H  0.49871807  0.78391348  0.75125058     0.06400
N28         N  0.75074550  0.64157561  0.16426302    -0.26900
N29         N  0.75940504  0.62623101  0.13976583    -0.34800
C30         C  0.78012792  0.59841270  0.14541663     0.01400
C31         C  0.78464225  0.59593502  0.17501539     0.07400
C32         C  0.76575094  0.62394152  0.18623614    -0.05700
H33         H  0.79073798  0.58108465  0.12912551     0.08100
H34         H  0.76338533  0.63150717  0.20861364     0.09300
Cu35       Cu  0.74270733  0.64373638  0.09996987     0.44200
Cu36       Cu  0.71829173  0.68518825  0.16674074     0.42000
Cu37       Cu  0.67979356  0.71516606  0.09926204     0.43900
N38         N  0.72309472  0.66615199  0.06279753    -0.34300
N39         N  0.69958791  0.69178881  0.06231485    -0.28600
C40         C  0.69283327  0.70052979  0.03470179    -0.04700
C41         C  0.71330454  0.67948568  0.01715577     0.07500
C42         C  0.73212929  0.65801651  0.03564902     0.01300
H43         H  0.67489027  0.72111099  0.02797787     0.09000
H44         H  0.75117236  0.63809584  0.02989968     0.08100
N45         N  0.66776154  0.73643928  0.13922755    -0.35800
N46         N  0.68223795  0.72586707  0.16373357    -0.28000
C47         C  0.66782188  0.74380128  0.18566505    -0.03200
C48         C  0.64295592  0.76690221  0.17451984     0.05400
C49         C  0.64371359  0.76138145  0.14493075     0.03500
H50         H  0.67427873  0.73944600  0.20815289     0.08600
H51         H  0.62678952  0.77308775  0.12874538     0.07400
N52         N  0.67885387  0.71856242  0.83794768    -0.26900
N53         N  0.66414297  0.72808953  0.86245937    -0.34800
C54         C  0.63645877  0.74899934  0.85676048     0.01400
C55         C  0.63333365  0.75290322  0.82709090     0.07400
C56         C  0.66095538  0.73328949  0.81592552    -0.05700
H57         H  0.61947323  0.75993931  0.87310872     0.08100
H58         H  0.66793678  0.72992974  0.79353574     0.09300
Cu59       Cu  0.68206565  0.71172585  0.90238623     0.44200
Cu60       Cu  0.72128653  0.68421584  0.83576660     0.42000
Cu61       Cu  0.75395545  0.64903876  0.90385301     0.43900
N62         N  0.70420712  0.69206801  0.93981206    -0.34300
N63         N  0.73035484  0.66913253  0.94050878    -0.28600
C64         C  0.73777754  0.66119831  0.96816805    -0.04700
C65         C  0.71521631  0.68015556  0.98556439     0.07500
C66         C  0.69437456  0.69948167  0.96692141     0.01300
H67         H  0.75793605  0.64285581  0.97503051     0.09000
H68         H  0.67329841  0.71728474  0.97254797     0.08100
N69         N  0.77056720  0.63174507  0.86378811    -0.35800
N70         N  0.75901979  0.64481730  0.83905617    -0.28000
C71         C  0.77337365  0.62660264  0.81723355    -0.03200
C72         C  0.79478980  0.60036900  0.82869160     0.05400
C73         C  0.79245822  0.60479705  0.85835028     0.03500
H74         H  0.76802415  0.63210826  0.79476473     0.08600
H75         H  0.80461406  0.58872254  0.87491297     0.07400
C76         C  0.87144640  0.44182550  0.26891809     0.03500
C77         C  0.90835115  0.44400714  0.26853513    -0.12700
C78         C  0.92519397  0.47053129  0.25254277     0.01000
C79         C  0.90504244  0.49500760  0.23699840    -0.11200
C80         C  0.86824659  0.49303681  0.23696471     0.03500
C81         C  0.85169007  0.46650735  0.25307906    -0.10600
H82         H  0.92401150  0.42442017  0.27974444     0.09100
H83         H  0.91815028  0.51588400  0.22521221     0.06600
H84         H  0.82321987  0.46489263  0.25312553     0.06400
N85         N  0.67386257  0.20760207  0.66574593    -0.26900
N86         N  0.65991151  0.19843557  0.64065063    -0.34800
C87         C  0.63279244  0.17639392  0.64529331     0.01400
C88         C  0.62939930  0.17121724  0.67478852     0.07400
C89         C  0.65591881  0.19158943  0.68700023    -0.05700
H90         H  0.61597127  0.16625208  0.62834694     0.08100
H91         H  0.66152478  0.19502756  0.70973378     0.09300
Cu92       Cu  0.67619670  0.21796558  0.60110319     0.44200
Cu93       Cu  0.71472484  0.24373768  0.67051348     0.42000
Cu94       Cu  0.74135947  0.28646781  0.60452624     0.43900
N95         N  0.69535459  0.24375219  0.56498574    -0.34300
N96         N  0.71946901  0.26882602  0.56631953    -0.28600
C97         C  0.72653972  0.28022946  0.53948857    -0.04700
C98         C  0.70573712  0.26149062  0.52037239     0.07500
C99         C  0.68625216  0.23861234  0.53722948     0.01300
H100        H  0.74543120  0.30061679  0.53434909     0.09000
H101        H  0.66714915  0.21940022  0.52989780     0.08100
N102        N  0.75952631  0.30103479  0.64485717    -0.35800
N103        N  0.75078154  0.28502272  0.66913871    -0.28000
C104        C  0.76677986  0.30156252  0.69134677    -0.03200
C105        C  0.78602183  0.32958901  0.68041594     0.05400
C106        C  0.78088320  0.32827893  0.65088103     0.03500
H107        H  0.76355949  0.29456656  0.71382416     0.08600
H108        H  0.79171747  0.34592630  0.63485795     0.07400
N109        N  0.75451879  0.29237617  0.34221485    -0.26900
N110        N  0.76502850  0.30733304  0.36651627    -0.34800
C111        C  0.78822164  0.33302077  0.36028399     0.01400
C112        C  0.79246920  0.33459063  0.33055372     0.07400
C113        C  0.77080456  0.30802931  0.31995189    -0.05700
H114        H  0.80002973  0.35018657  0.37624785     0.08100
H115        H  0.76658835  0.30051244  0.29773739     0.09300
Cu116      Cu  0.74556836  0.29395337  0.40688879     0.44200
Cu117      Cu  0.71572816  0.25396964  0.33943291     0.42000
Cu118      Cu  0.67055869  0.23523054  0.40547824     0.43900
N119        N  0.71991471  0.27639001  0.44368562    -0.34300
N120        N  0.69243004  0.25501084  0.44291388    -0.28600
C121        C  0.68276364  0.24712432  0.46999572    -0.04700
C122        C  0.70522414  0.26435778  0.48876624     0.07500
C123        C  0.72839544  0.28281924  0.47142159     0.01300
H124        H  0.66146137  0.22946480  0.47552844     0.09000
H125        H  0.75041565  0.29884735  0.47838412     0.08100
N126        N  0.65480245  0.21556565  0.36601830    -0.35800
N127        N  0.67182512  0.22155488  0.34172371    -0.28000
C128        C  0.65494733  0.20499307  0.32003825    -0.03200
C129        C  0.62569307  0.18809043  0.33126224     0.05400
C130        C  0.62660312  0.19524817  0.36052679     0.03500
H131        H  0.66288386  0.20593728  0.29766165     0.08600
H132        H  0.60841779  0.18613090  0.37678695     0.07400
C133        C  0.52332507  0.10616903  0.26782678     0.03500
C134        C  0.52485028  0.06930004  0.26750275    -0.12700
C135        C  0.49947748  0.04968853  0.25232148     0.01000
C136        C  0.47280463  0.06742463  0.23704826    -0.11200
C137        C  0.47104660  0.10442663  0.23719906     0.03500
C138        C  0.49658707  0.12357120  0.25260699    -0.10600
H139        H  0.54585853  0.05595136  0.27901649     0.09100
H140        H  0.45297440  0.05234239  0.22555197     0.06600
H141        H  0.49622008  0.15212303  0.25232584     0.06400
C142        C  0.13242288  0.44088840  0.76171477     0.03500
C143        C  0.09568628  0.44030611  0.76283294    -0.12700
C144        C  0.07588382  0.46593683  0.74830032     0.01000
C145        C  0.09316589  0.49204326  0.73213578    -0.11200
C146        C  0.13016692  0.49284412  0.73072308     0.03500
C147        C  0.14958149  0.46715764  0.74583777    -0.10600
H148        H  0.08251125  0.41985428  0.77507462     0.09100
H149        H  0.07777251  0.51224474  0.72143121     0.06600
H150        H  0.17807576  0.46720301  0.74494393     0.06400
C151        C  0.46663499  0.09425931  0.76431277     0.03500
C152        C  0.46689732  0.05727338  0.76450202    -0.12700
C153        C  0.49312898  0.03860229  0.74988491     0.01000
C154        C  0.51962456  0.05714416  0.73532767    -0.11200
C155        C  0.52019311  0.09416469  0.73537205     0.03500
C156        C  0.49340030  0.11249370  0.74974902    -0.10600
H157        H  0.44632617  0.04294748  0.77563335     0.09100
H158        H  0.54034748  0.04266839  0.72461926     0.06600
H159        H  0.49347211  0.14102343  0.74974416     0.06400
N160        N  0.32118263  0.21661155  0.16078291    -0.26900
N161        N  0.33723639  0.20824348  0.13655073    -0.34800
C162        C  0.36389950  0.18616135  0.14250816     0.01400
C163        C  0.36470705  0.18015971  0.17201729     0.07400
C164        C  0.33723144  0.20007671  0.18287695    -0.05700
H165        H  0.38213612  0.17653187  0.12654645     0.08100
H166        H  0.32972176  0.20285166  0.20524182     0.09300
Cu167      Cu  0.32347272  0.22870820  0.09676170     0.44200
Cu168      Cu  0.28000050  0.25215045  0.16273517     0.42000
Cu169      Cu  0.25411256  0.29407615  0.09543852     0.43900
N170        N  0.30532210  0.25274295  0.05957039    -0.34300
N171        N  0.28009303  0.27668698  0.05901280    -0.28600
C172        C  0.27403501  0.28632269  0.03150828    -0.04700
C173        C  0.29646012  0.26738244  0.01401417     0.07500
C174        C  0.31593606  0.24638933  0.03247405     0.01300
H175        H  0.25416564  0.30503619  0.02475894     0.09000
H176        H  0.33584105  0.22735837  0.02667335     0.08100
N177        N  0.23375056  0.30748154  0.13527270    -0.35800
N178        N  0.24310367  0.29207562  0.15971973    -0.28000
C179        C  0.22688530  0.30818995  0.18173451    -0.03200
C180        C  0.20644549  0.33533631  0.17069636     0.05400
C181        C  0.21128739  0.33381665  0.14108934     0.03500
H182        H  0.23029302  0.30075106  0.20409264     0.08600
H183        H  0.20052185  0.35152998  0.12500442     0.07400
N184        N  0.24378326  0.28944110  0.83565123    -0.26900
N185        N  0.23792306  0.30675378  0.85987512    -0.34800
C186        C  0.21754923  0.33479112  0.85428586     0.01400
C187        C  0.21033754  0.33554277  0.82502470     0.07400
C188        C  0.22708867  0.30613586  0.81389535    -0.05700
H189        H  0.20899914  0.35334542  0.87046904     0.08100
H190        H  0.22832084  0.29830992  0.79147993     0.09300
Cu191      Cu  0.25932483  0.29390765  0.89940893     0.44200
Cu192      Cu  0.27721631  0.24626292  0.83317618     0.42000
Cu193      Cu  0.32238688  0.22470581  0.90069769     0.43900
N194        N  0.28341419  0.27691438  0.93679066    -0.34300
N195        N  0.30685893  0.25127762  0.93733849    -0.28600
C196        C  0.31612531  0.24478046  0.96485886    -0.04700
C197        C  0.29737801  0.26737180  0.98238501     0.07500
C198        C  0.27699174  0.28747425  0.96390185     0.01300
H199        H  0.33405756  0.22420241  0.97160734     0.09000
H200        H  0.25796468  0.30738473  0.96970835     0.08100
N201        N  0.33350903  0.20168207  0.86142021    -0.35800
N202        N  0.31705256  0.20902806  0.83694198    -0.28000
C203        C  0.33254015  0.19112310  0.81545584    -0.03200
C204        C  0.36009360  0.17152960  0.82694489     0.05400
C205        C  0.35980280  0.17902155  0.85619194     0.03500
H206        H  0.32492872  0.19315049  0.79298652     0.08600
H207        H  0.37845683  0.17039415  0.87240083     0.07400
C208        C  0.13293414  0.50108239  0.25684220     0.03500
C209        C  0.09601930  0.50164571  0.25741868    -0.12700
C210        C  0.07641645  0.47461138  0.24450566     0.01000
C211        C  0.09380431  0.44694160  0.23062658    -0.11200
C212        C  0.13063591  0.44633894  0.22918076     0.03500
C213        C  0.15006842  0.47350855  0.24240523    -0.10600
H214        H  0.08242639  0.52318153  0.26787300     0.09100
H215        H  0.07861040  0.42540746  0.22157359     0.06600
H216        H  0.17856120  0.47296065  0.24176433     0.06400
N217        N  0.23954898  0.64816450  0.65765377    -0.26900
N218        N  0.22888453  0.63397917  0.63308517    -0.34800
C219        C  0.20739046  0.60669316  0.63892771     0.01400
C220        C  0.20455452  0.60324082  0.66866350     0.07400
C221        C  0.22505411  0.63041701  0.67971457    -0.05700
H222        H  0.19599433  0.58964201  0.62267961     0.08100
H223        H  0.22988078  0.63669926  0.70211787     0.09300
Cu224      Cu  0.24675271  0.65022281  0.59289550     0.44200
Cu225      Cu  0.27738250  0.68748899  0.66079396     0.42000
Cu226      Cu  0.32275558  0.70799958  0.59484728     0.43900
N227        N  0.27153150  0.66940392  0.55621031    -0.34300
N228        N  0.29938702  0.69031407  0.55705023    -0.28600
C229        C  0.30939222  0.69774111  0.52992770    -0.04700
C230        C  0.28684354  0.68059836  0.51109386     0.07500
C231        C  0.26313682  0.66288747  0.52846347     0.01300
H232        H  0.33164100  0.71418262  0.52439151     0.09000
H233        H  0.24152225  0.64631623  0.52150329     0.08100
N234        N  0.33937212  0.72532576  0.63504291    -0.35800
N235        N  0.32201570  0.71898825  0.65913308    -0.28000
C236        C  0.33907890  0.73444848  0.68126692    -0.03200
C237        C  0.36884181  0.75102532  0.67063505     0.05400
C238        C  0.36806182  0.74473885  0.64119280     0.03500
H239        H  0.33082029  0.73307199  0.70354966     0.08600
H240        H  0.38654159  0.75407525  0.62524279     0.07400
N241        N  0.33276435  0.72211004  0.33374457    -0.26900
N242        N  0.34842549  0.72861427  0.35873836    -0.34800
C243        C  0.37680558  0.74901869  0.35412185     0.01400
C244        C  0.37886333  0.75591437  0.32486275     0.07400
C245        C  0.35044557  0.73863509  0.31261186    -0.05700
H246        H  0.39420673  0.75866906  0.37090132     0.08100
H247        H  0.34352599  0.73756520  0.28994592     0.09300
Cu248      Cu  0.32988320  0.71067652  0.39811666     0.44200
Cu249      Cu  0.28970715  0.68904360  0.32910615     0.42000
Cu250      Cu  0.25839805  0.64844311  0.39505961     0.43900
N251        N  0.30475805  0.69129466  0.43444607    -0.34300
N252        N  0.27845839  0.66849268  0.43336011    -0.28600
C253        C  0.26780369  0.66135238  0.46039444    -0.04700
C254        C  0.28846747  0.68056953  0.47936722     0.07500
C255        C  0.31158600  0.69927382  0.46218509     0.01300
H256        H  0.24673022  0.64335642  0.46579095     0.09000
H257        H  0.33192100  0.71732281  0.46926782     0.08100
N258        N  0.24172276  0.63393487  0.35408772    -0.35800
N259        N  0.25244415  0.64918848  0.33004211    -0.28000
C260        C  0.23702682  0.63319744  0.30735932    -0.03200
C261        C  0.21563436  0.60631429  0.31759138     0.05400
C262        C  0.21929377  0.60780780  0.34737105     0.03500
H263        H  0.24130267  0.64077068  0.28515908     0.08600
H264        H  0.20723392  0.59060979  0.36311833     0.07400
C265        C  0.19406510  0.58056828  0.30100238    -0.05100
C266        C  0.16538184  0.56424522  0.31461389    -0.32500
C267        C  0.14548898  0.53844706  0.30053513     0.36700
C268        C  0.15354800  0.52876700  0.27198083    -0.05500
C269        C  0.18194547  0.54524361  0.25813099    -0.32400
C270        C  0.20221061  0.57081946  0.27237784     0.36600
H271        H  0.15830897  0.57125439  0.33646108     0.17000
O272        O  0.11868205  0.52228006  0.31522197    -0.59900
H273        H  0.18854506  0.53817232  0.23616983     0.17000
O274        O  0.23027846  0.58538367  0.25821970    -0.60000
H275        H  0.25059463  0.57007663  0.26309848     0.44000
H276        H  0.12935896  0.50088572  0.32390107     0.43900
C277        C  0.18600127  0.36216990  0.18670114    -0.05100
C278        C  0.15707498  0.37840919  0.17316284    -0.32500
C279        C  0.13860080  0.40548783  0.18679767     0.36700
C280        C  0.14887611  0.41686671  0.21455588    -0.05500
C281        C  0.17734713  0.40025143  0.22831522    -0.32400
C282        C  0.19578090  0.37308701  0.21474055     0.36600
H283        H  0.14884676  0.37031677  0.15175492     0.17000
O284        O  0.11108519  0.42117952  0.17245962    -0.59900
H285        H  0.18549996  0.40847280  0.24972085     0.17000
O286        O  0.22454546  0.35897221  0.22847147    -0.60000
H287        H  0.21483441  0.34310285  0.24349559     0.44000
H288        H  0.12137664  0.44217228  0.16290694     0.43900
C289        C  0.43884633  0.11375930  0.77995914    -0.05100
C290        C  0.43100615  0.10455466  0.80856040    -0.32500
C291        C  0.40534252  0.12283641  0.82408986     0.36700
C292        C  0.38667321  0.15075941  0.81093387    -0.05500
C293        C  0.39407051  0.15942654  0.78209517    -0.32400
C294        C  0.41998516  0.14136014  0.76669093     0.36600
H295        H  0.44512048  0.08326530  0.81906692     0.17000
O296        O  0.39775682  0.11216812  0.85166657    -0.59900
H297        H  0.38015680  0.18069759  0.77143790     0.17000
O298        O  0.42566535  0.14988317  0.73829946    -0.60000
H299        H  0.43782036  0.17303387  0.73865966     0.44000
H300        H  0.41820096  0.11966964  0.86357713     0.43900
C301        C  0.18558411  0.57511183  0.68480214    -0.05100
C302        C  0.15689052  0.55773314  0.67178669    -0.34100
C303        C  0.13855730  0.53101047  0.68635547     0.36700
C304        C  0.14880128  0.52108999  0.71450930    -0.05500
C305        C  0.17777739  0.53804073  0.72731850    -0.32400
C306        C  0.19613926  0.56463764  0.71280306     0.36600
H307        H  0.14844428  0.56487823  0.65020368     0.17000
O308        O  0.11186876  0.51352166  0.67232995    -0.59900
H309        H  0.18631244  0.53069598  0.74885140     0.17000
O310        O  0.22550921  0.57873707  0.72568507    -0.60000
H311        H  0.21655846  0.59405204  0.74133725     0.44000
H312        H  0.09209957  0.53051943  0.67124554     0.43900
C313        C  0.15283834  0.41401881  0.77743194    -0.05100
C314        C  0.17327602  0.42393319  0.80129356    -0.32500
C315        C  0.19185290  0.39863715  0.81721356     0.36700
C316        C  0.19065517  0.36286152  0.80887902    -0.05500
C317        C  0.17058614  0.35317918  0.78460658    -0.32400
C318        C  0.15156919  0.37845717  0.76904195     0.36600
H319        H  0.17451952  0.45134281  0.80777207     0.17000
O320        O  0.21236091  0.40942601  0.84001048    -0.59900
H321        H  0.16924833  0.32586836  0.77790850     0.17000
O322        O  0.13176823  0.36819849  0.74567612    -0.60000
H323        H  0.14685609  0.37269154  0.72866186     0.44000
H324        H  0.19561388  0.41524823  0.85563831     0.43900
C325        C  0.44287159  0.12310954  0.22098025    -0.05100
C326        C  0.43434149  0.11260224  0.19274594    -0.32500
C327        C  0.40868665  0.13053501  0.17664681     0.36700
C328        C  0.39104151  0.15964118  0.18872510    -0.05500
C329        C  0.39901751  0.16958410  0.21720881    -0.32400
C330        C  0.42442817  0.15152173  0.23333634     0.36600
H331        H  0.44793044  0.09063465  0.18291614     0.17000
O332        O  0.40006570  0.11843741  0.14963131    -0.59900
H333        H  0.38583216  0.19177502  0.22703415     0.17000
O334        O  0.43077351  0.16177918  0.26126399    -0.60000
H335        H  0.41725407  0.14503953  0.27337910     0.44000
H336        H  0.42034992  0.12469531  0.13723211     0.43900
C337        C  0.54965657  0.12674893  0.28412584    -0.05100
C338        C  0.53881610  0.14789140  0.30718521    -0.32500
C339        C  0.56331114  0.16774765  0.32294831     0.36700
C340        C  0.59919403  0.16709427  0.31530178    -0.05500
C341        C  0.60983338  0.14629862  0.29187333    -0.32400
C342        C  0.58536589  0.12610678  0.27640937     0.36600
H343        H  0.51125586  0.14891074  0.31302075     0.17000
O344        O  0.55164211  0.18908706  0.34475922    -0.59900
H345        H  0.63726107  0.14545173  0.28567009     0.17000
O346        O  0.59649818  0.10615042  0.25356774    -0.60000
H347        H  0.59323067  0.12136551  0.23633564     0.44000
H348        H  0.54602878  0.17295705  0.36096439     0.43900
C349        C  0.60189050  0.15073156  0.69020419    -0.05100
C350        C  0.59237549  0.16051935  0.71834982    -0.32500
C351        C  0.56632040  0.14212654  0.73339917     0.36700
C352        C  0.54866396  0.11359829  0.72024429    -0.05500
C353        C  0.55856989  0.10336077  0.69234354    -0.32400
C354        C  0.58489234  0.12155246  0.67735149     0.36600
H355        H  0.60498586  0.18271953  0.72881446     0.17000
O356        O  0.55874936  0.15200194  0.76114253    -0.59900
H357        H  0.54563907  0.08126592  0.68194068     0.17000
O358        O  0.59483695  0.10952538  0.65072413    -0.60000
H359        H  0.57517858  0.11575591  0.63749017     0.44000
H360        H  0.57308305  0.13623782  0.77360004     0.43900
C361        C  0.96393099  0.47201557  0.25085061    -0.05100
C362        C  0.98006782  0.47167160  0.22367786    -0.32500
C363        C  0.01670431  0.47264100  0.22133455     0.36700
C364        C  0.03769027  0.47455890  0.24639141    -0.05500
C365        C  0.02156169  0.47574604  0.27355594    -0.32400
C366        C  0.98490627  0.47438333  0.27590535     0.36600
H367        H  0.96418041  0.47024626  0.20421437     0.17000
O368        O  0.03178492  0.47291363  0.19449237    -0.59900
H369        H  0.03748853  0.47727910  0.29299055     0.17000
O370        O  0.96983118  0.47564215  0.30271060    -0.60000
H371        H  0.96464865  0.50091001  0.30606734     0.44000
H372        H  0.03046669  0.44820303  0.18762296     0.43900
C373        C  0.81379690  0.36066878  0.31405262    -0.05100
C374        C  0.84172780  0.37846643  0.32785791    -0.32500
C375        C  0.86132543  0.40433241  0.31337820     0.36700
C376        C  0.85304773  0.41304887  0.28456977    -0.05500
C377        C  0.82560127  0.39494455  0.27064706    -0.32400
C378        C  0.80607508  0.36912327  0.28499040     0.36600
H379        H  0.84840777  0.37256255  0.35008459     0.17000
O380        O  0.88710515  0.42232111  0.32809510    -0.59900
H381        H  0.81891308  0.40109619  0.24843844     0.17000
O382        O  0.77824537  0.35396116  0.27072457    -0.60000
H383        H  0.78890695  0.33700941  0.25704868     0.44000
H384        H  0.90705331  0.40560746  0.32982788     0.43900
C385        C  0.84690750  0.51904535  0.22064843    -0.05100
C386        C  0.81762884  0.53446018  0.23389556    -0.32500
C387        C  0.79701029  0.55927703  0.21931175     0.36700
C388        C  0.80561942  0.56933253  0.19091180    -0.05500
C389        C  0.83462782  0.55350768  0.17745365    -0.32400
C390        C  0.85508001  0.52845549  0.19198933     0.36600
H391        H  0.81074049  0.52742710  0.25582355     0.17000
O392        O  0.76754992  0.57218101  0.23256522    -0.59900
H393        H  0.84171460  0.56070125  0.15561497     0.17000
O394        O  0.88269122  0.51309287  0.17782171    -0.60000
H395        H  0.87330379  0.49048373  0.17028821     0.44000
H396        H  0.77640868  0.58844804  0.24771146     0.43900
C397        C  0.49471843  0.92534259  0.75233125    -0.05100
C398        C  0.49380413  0.94315209  0.72574176    -0.32500
C399        C  0.49324073  0.98000003  0.72465908     0.36700
C400        C  0.49330612  0.99963233  0.75042775    -0.05500
C401        C  0.49360974  0.98185606  0.77701018    -0.32400
C402        C  0.49470320  0.94498425  0.77810202     0.36600
H403        H  0.49383382  0.92839815  0.70573495     0.17000
O404        O  0.49238710  0.99656845  0.69833220    -0.59900
H405        H  0.49345771  0.99665290  0.79699560     0.17000
O406        O  0.49440298  0.92832400  0.80439863    -0.60000
H407        H  0.51867553  0.93083240  0.81212555     0.44000
H408        H  0.46713458  0.00134877  0.69447686     0.43900
C409        C  0.55226163  0.81200495  0.78266316    -0.05100
C410        C  0.56975867  0.78443738  0.76859708    -0.32500
C411        C  0.59621774  0.76513232  0.78256497     0.36700
C412        C  0.60590020  0.77329476  0.81125248    -0.05500
C413        C  0.58836514  0.80099023  0.82530266    -0.32400
C414        C  0.56169903  0.82008099  0.81136888     0.36600
H415        H  0.56283213  0.77768248  0.74657108     0.17000
O416        O  0.61097616  0.73717566  0.76839244    -0.59900
H417        H  0.59520036  0.80795455  0.84728043     0.17000
O418        O  0.54454568  0.84604039  0.82628383    -0.60000
H419        H  0.52325599  0.83451824  0.83425738     0.44000
H420        H  0.62698422  0.74778509  0.75392717     0.43900
C421        C  0.39534867  0.77135177  0.68728382    -0.05100
C422        C  0.38456905  0.79152262  0.71105263    -0.32500
C423        C  0.40895631  0.81122275  0.72708678     0.36700
C424        C  0.44485655  0.81014820  0.71997324    -0.05500
C425        C  0.45581433  0.78962360  0.69657089    -0.32400
C426        C  0.43134419  0.77069618  0.67999293     0.36600
H427        H  0.35705923  0.79242880  0.71700338     0.17000
O428        O  0.39768703  0.83046686  0.75029796    -0.59900
H429        H  0.48345065  0.78851586  0.69099515     0.17000
O430        O  0.44312468  0.75034123  0.65760901    -0.60000
H431        H  0.44884039  0.76719665  0.64192835     0.44000
H432        H  0.38858919  0.85280053  0.74201858     0.43900
C433        C  0.96305332  0.46117438  0.75272872    -0.05100
C434        C  0.98319271  0.46452672  0.77806369    -0.32500
C435        C  0.01994439  0.46613230  0.77688565     0.36700
C436        C  0.03707158  0.46510717  0.75002112    -0.05500
C437        C  0.01697859  0.46222201  0.72464914    -0.32400
C438        C  0.98023208  0.46009985  0.72585347     0.36600
H439        H  0.97035632  0.46568982  0.79886889     0.17000
O440        O  0.03889036  0.46998122  0.80198650    -0.59900
H441        H  0.02988237  0.46125331  0.70386742     0.17000
O442        O  0.96135190  0.45747987  0.70063404    -0.60000
H443        H  0.95512466  0.48205555  0.69541218     0.44000
H444        H  0.03880921  0.44636449  0.81119183     0.43900
C445        C  0.80645854  0.35626014  0.69666115    -0.05100
C446        C  0.82767616  0.34593285  0.72009674    -0.32500
C447        C  0.84832093  0.37073320  0.73494339     0.36700
C448        C  0.84703255  0.40650764  0.72695272    -0.05500
C449        C  0.82530095  0.41692842  0.70395988    -0.32400
C450        C  0.80527669  0.39214865  0.68874361     0.36600
H451        H  0.82879763  0.31849096  0.72652494     0.17000
O452        O  0.86886248  0.35999555  0.75773099    -0.59900
H453        H  0.82402489  0.44443046  0.69769585     0.17000
O454        O  0.78421301  0.40343894  0.66645642    -0.60000
H455        H  0.76086496  0.40769601  0.67523843     0.44000
H456        H  0.89109452  0.35167123  0.74895570     0.43900
C457        C  0.85108214  0.51655979  0.78591890    -0.05100
C458        C  0.82285275  0.53335832  0.77197695    -0.32500
C459        C  0.80461504  0.56088923  0.78526350     0.36700
C460        C  0.81435844  0.57217509  0.81324481    -0.05500
C461        C  0.84269800  0.55525584  0.82716233    -0.32400
C462        C  0.86102413  0.52780377  0.81376065     0.36600
H463        H  0.81485330  0.52514346  0.75053022     0.17000
O464        O  0.77623051  0.57519245  0.77115184    -0.59900
H465        H  0.85083802  0.56322288  0.84860894     0.17000
O466        O  0.88741072  0.51092843  0.82864565    -0.60000
H467        H  0.90737948  0.52778561  0.82909208     0.44000
H468        H  0.78634224  0.59055469  0.75596032     0.43900
C469        C  0.50399227  0.93644494  0.25109082    -0.05100
C470        C  0.50457904  0.95451105  0.27746368    -0.32500
C471        C  0.50335990  0.99137591  0.27817276     0.36700
C472        C  0.50091801  0.01067428  0.25221302    -0.05500
C473        C  0.49962419  0.99247233  0.22585244    -0.32400
C474        C  0.50142082  0.95563786  0.22516022     0.36600
H475        H  0.50623254  0.93996425  0.29757167     0.17000
O476        O  0.50294592  0.00826302  0.30433495    -0.59900
H477        H  0.49754048  0.00689652  0.20571445     0.17000
O478        O  0.49922726  0.93851155  0.19915197    -0.60000
H479        H  0.52319123  0.93990284  0.19087945     0.44000
H480        H  0.52731803  0.00639587  0.31196707     0.43900
C481        C  0.56464171  0.82511862  0.22162776    -0.05100
C482        C  0.57517274  0.83653387  0.19413301    -0.32500
C483        C  0.60136592  0.81861501  0.17886883     0.36700
C484        C  0.61750782  0.78855103  0.19100035    -0.05500
C485        C  0.60812494  0.77818454  0.21904797    -0.32400
C486        C  0.58200399  0.79609838  0.23431539     0.36600
H487        H  0.56257930  0.85907418  0.18411034     0.17000
O488        O  0.61180575  0.83146285  0.15257480    -0.59900
H489        H  0.62038405  0.75550865  0.22909490     0.17000
O490        O  0.57450193  0.78580042  0.26203045    -0.60000
H491        H  0.56300334  0.76240537  0.26026048     0.44000
H492        H  0.59186102  0.82679992  0.13921413     0.43900
C493        C  0.40525043  0.77767167  0.30987652    -0.05100
C494        C  0.39415597  0.80270892  0.28947425    -0.32500
C495        C  0.41864076  0.82406460  0.27522063     0.36700
C496        C  0.45488381  0.81964449  0.28060316    -0.05500
C497        C  0.46595665  0.79419984  0.30071188    -0.32400
C498        C  0.44142319  0.77362432  0.31560226     0.36600
H499        H  0.36637311  0.80603996  0.28485603     0.17000
O500        O  0.40703378  0.84811537  0.25519648    -0.59900
H501        H  0.49376241  0.79043118  0.30500875     0.17000
O502        O  0.45310489  0.74844414  0.33463271    -0.60000
H503        H  0.45928043  0.76146617  0.35250200     0.44000
H504        H  0.39764802  0.86807914  0.26658601     0.43900
loop_ 
_geom_bond_atom_site_label_1 
_geom_bond_atom_site_label_2 
_geom_bond_distance 
_geom_bond_site_symmetry_2 
_ccdc_geom_bond_type 
C1            C2   1.402       .  A
C1            C6   1.402       .  A
C1          C496   1.480       .  S
C2            C3   1.402       .  A
C2            H7   1.084       .  S
C3            C4   1.403       .  A
C3          C469   1.477       .  S
C4            C5   1.405       .  A
C4            H8   1.084       .  S
C5            C6   1.405       .  A
C5          C481   1.487       .  S
C6            H9   1.083       .  S
C10          C11   1.403       .  A
C10          C15   1.405       .  A
C10         C457   1.485       .  S
C11          C12   1.404       .  A
C11          H16   1.083       .  S
C12          C13   1.405       .  A
C12         C433   1.480       .  S
C13          C14   1.403       .  A
C13          H17   1.084       .  S
C14          C15   1.402       .  A
C14         C448   1.477       .  S
C15          H18   1.084       .  S
C19          C20   1.406       .  A
C19          C24   1.406       .  A
C19         C409   1.486       .  S
C20          C21   1.405       .  A
C20          H25   1.083       .  S
C21          C22   1.403       .  A
C21         C397   1.481       .  S
C22          C23   1.401       .  A
C22          H26   1.084       .  S
C23          C24   1.401       .  A
C23         C424   1.477       .  S
C24          H27   1.084       .  S
N28          N29   1.320       .  A
N28          C32   1.342       .  A
N28         Cu36   2.069       .  S
N29          C30   1.342       .  A
N29         Cu35   2.056       .  S
C30          C31   1.384       .  A
C30          H33   1.082       .  S
C31          C32   1.387       .  A
C31         C388   1.480       .  S
C32          H34   1.081       .  S
Cu35         N38   2.056       .  S
Cu36         N46   2.069       .  S
Cu37         N39   2.075       .  S
Cu37         N45   2.075       .  S
N38          N39   1.322       .  A
N38          C42   1.342       .  A
N39          C40   1.345       .  A
C40          C41   1.384       .  A
C40          H43   1.082       .  S
C41          C42   1.379       .  A
C41          C65   1.466   1_554  S
C42          H44   1.082       .  S
N45          N46   1.321       .  A
N45          C49   1.344       .  A
N46          C47   1.344       .  A
C47          C48   1.387       .  A
C47          H50   1.082       .  S
C48          C49   1.388       .  A
C48         C484   1.485       .  S
C49          H51   1.081       .  S
N52          N53   1.320       .  A
N52          C56   1.344       .  A
N52         Cu60   2.078       .  S
N53          C54   1.343       .  A
N53         Cu59   2.063       .  S
C54          C55   1.387       .  A
C54          H57   1.082       .  S
C55          C56   1.390       .  A
C55         C412   1.489       .  S
C56          H58   1.080       .  S
Cu59         N62   2.062       .  S
Cu60         N70   2.078       .  S
Cu61         N63   2.072       .  S
Cu61         N69   2.072       .  S
N62          N63   1.322       .  A
N62          C66   1.343       .  A
N63          C64   1.344       .  A
C64          C65   1.383       .  A
C64          H67   1.082       .  S
C65          C66   1.380       .  A
C66          H68   1.082       .  S
N69          N70   1.321       .  A
N69          C73   1.344       .  A
N70          C71   1.344       .  A
C71          C72   1.390       .  A
C71          H74   1.080       .  S
C72          C73   1.388       .  A
C72         C460   1.490       .  S
C73          H75   1.082       .  S
C76          C77   1.405       .  A
C76          C81   1.405       .  A
C76         C376   1.486       .  S
C77          C78   1.405       .  A
C77          H82   1.083       .  S
C78          C79   1.401       .  A
C78         C361   1.476       .  S
C79          C80   1.400       .  A
C79          H83   1.084       .  S
C80          C81   1.403       .  A
C80         C385   1.482       .  S
C81          H84   1.084       .  S
N85          N86   1.322       .  A
N85          C89   1.345       .  A
N85         Cu93   2.081       .  S
N86          C87   1.344       .  A
N86         Cu92   2.073       .  S
C87          C88   1.387       .  A
C87          H90   1.081       .  S
C88          C89   1.388       .  A
C88         C349   1.487       .  S
C89          H91   1.082       .  S
Cu92         N95   2.072       .  S
Cu93        N103   2.081       .  S
Cu94         N96   2.064       .  S
Cu94        N102   2.064       .  S
N95          N96   1.321       .  A
N95          C99   1.344       .  A
N96          C97   1.344       .  A
C97          C98   1.381       .  A
C97         H100   1.082       .  S
C98          C99   1.384       .  A
C98         C122   1.468       .  S
C99         H101   1.082       .  S
N102        N103   1.322       .  A
N102        C106   1.342       .  A
N103        C104   1.348       .  A
C104        C105   1.387       .  A
C104        H107   1.082       .  S
C105        C106   1.382       .  A
C105        C445   1.479       .  S
C106        H108   1.082       .  S
N109        N110   1.321       .  A
N109        C113   1.343       .  A
N109       Cu117   2.075       .  S
N110        C111   1.345       .  A
N110       Cu116   2.077       .  S
C111        C112   1.389       .  A
C111        H114   1.082       .  S
C112        C113   1.389       .  A
C112        C373   1.491       .  S
C113        H115   1.079       .  S
Cu116       N119   2.077       .  S
Cu117       N127   2.074       .  S
Cu118       N120   2.061       .  S
Cu118       N126   2.061       .  S
N119        N120   1.322       .  A
N119        C123   1.346       .  A
N120        C121   1.343       .  A
C121        C122   1.380       .  A
C121        H124   1.082       .  S
C122        C123   1.384       .  A
C123        H125   1.082       .  S
N126        N127   1.321       .  A
N126        C130   1.343       .  A
N127        C128   1.345       .  A
C128        C129   1.386       .  A
C128        H131   1.082       .  S
C129        C130   1.383       .  A
C129        C340   1.479       .  S
C130        H132   1.081       .  S
C133        C134   1.400       .  A
C133        C138   1.399       .  A
C133        C337   1.474       .  S
C134        C135   1.404       .  A
C134        H139   1.084       .  S
C135        C136   1.405       .  A
C135        C472   1.482       .  S
C136        C137   1.406       .  A
C136        H140   1.084       .  S
C137        C138   1.404       .  A
C137        C325   1.485       .  S
C138        H141   1.084       .  S
C142        C143   1.397       .  A
C142        C147   1.400       .  A
C142        C313   1.472       .  S
C143        C144   1.400       .  A
C143        H148   1.084       .  S
C144        C145   1.405       .  A
C144        C436   1.478       .  S
C145        C146   1.408       .  A
C145        H149   1.083       .  S
C146        C147   1.407       .  A
C146        C304   1.489       .  S
C147        H150   1.084       .  S
C151        C152   1.404       .  A
C151        C156   1.405       .  A
C151        C289   1.483       .  S
C152        C153   1.402       .  A
C152        H157   1.084       .  S
C153        C154   1.403       .  A
C153        C400   1.479   1_545  S
C154        C155   1.405       .  A
C154        H158   1.084       .  S
C155        C156   1.405       .  A
C155        C352   1.487       .  S
C156        H159   1.083       .  S
N160        N161   1.320       .  A
N160        C164   1.344       .  A
N160       Cu168   2.070       .  S
N161        C162   1.343       .  A
N161       Cu167   2.064       .  S
C162        C163   1.386       .  A
C162        H165   1.081       .  S
C163        C164   1.387       .  A
C163        C328   1.483       .  S
C164        H166   1.082       .  S
Cu167       N170   2.064       .  S
Cu168       N178   2.070       .  S
Cu169       N171   2.069       .  S
Cu169       N177   2.070       .  S
N170        N171   1.322       .  A
N170        C174   1.343       .  A
N171        C172   1.344       .  A
C172        C173   1.382       .  A
C172        H175   1.082       .  S
C173        C174   1.381       .  A
C173        C197   1.466   1_554  S
C174        H176   1.082       .  S
N177        N178   1.321       .  A
N177        C181   1.344       .  A
N178        C179   1.343       .  A
C179        C180   1.386       .  A
C179        H182   1.080       .  S
C180        C181   1.386       .  A
C180        C277   1.484       .  S
C181        H183   1.082       .  S
N184        N185   1.321       .  A
N184        C188   1.346       .  A
N184       Cu192   2.078       .  S
N185        C186   1.341       .  A
N185       Cu191   2.058       .  S
C186        C187   1.382       .  A
C186        H189   1.081       .  S
C187        C188   1.387       .  A
C187        C316   1.479       .  S
C188        H190   1.082       .  S
Cu191       N194   2.058       .  S
Cu192       N202   2.079       .  S
Cu193       N195   2.065       .  S
Cu193       N201   2.066       .  S
N194        N195   1.320       .  A
N194        C198   1.343       .  A
N195        C196   1.343       .  A
C196        C197   1.383       .  A
C196        H199   1.082       .  S
C197        C198   1.381       .  A
C198        H200   1.082       .  S
N201        N202   1.322       .  A
N201        C205   1.342       .  A
N202        C203   1.345       .  A
C203        C204   1.388       .  A
C203        H206   1.082       .  S
C204        C205   1.385       .  A
C204        C292   1.485       .  S
C205        H207   1.081       .  S
C208        C209   1.403       .  A
C208        C213   1.405       .  A
C208        C268   1.484       .  S
C209        C210   1.400       .  A
C209        H214   1.084       .  S
C210        C211   1.400       .  A
C210        C364   1.475       .  S
C211        C212   1.402       .  A
C211        H215   1.084       .  S
C212        C213   1.407       .  A
C212        C280   1.483       .  S
C213        H216   1.084       .  S
N217        N218   1.321       .  A
N217        C221   1.343       .  A
N217       Cu225   2.075       .  S
N218        C219   1.346       .  A
N218       Cu224   2.078       .  S
C219        C220   1.389       .  A
C219        H222   1.082       .  S
C220        C221   1.388       .  A
C220        C301   1.490       .  S
C221        H223   1.080       .  S
Cu224       N227   2.078       .  S
Cu225       N235   2.075       .  S
Cu226       N228   2.071       .  S
Cu226       N234   2.071       .  S
N227        N228   1.322       .  A
N227        C231   1.346       .  A
N228        C229   1.344       .  A
C229        C230   1.382       .  A
C229        H232   1.082       .  S
C230        C231   1.384       .  A
C230        C254   1.472       .  S
C231        H233   1.082       .  S
N234        N235   1.321       .  A
N234        C238   1.344       .  A
N235        C236   1.345       .  A
C236        C237   1.386       .  A
C236        H239   1.082       .  S
C237        C238   1.385       .  A
C237        C421   1.482       .  S
C238        H240   1.081       .  S
N241        N242   1.322       .  A
N241        C245   1.344       .  A
N241       Cu249   2.071       .  S
N242        C243   1.345       .  A
N242       Cu248   2.073       .  S
C243        C244   1.383       .  A
C243        H246   1.082       .  S
C244        C245   1.382       .  A
C244        C493   1.474       .  S
C245        H247   1.082       .  S
Cu248       N251   2.073       .  S
Cu249       N259   2.071       .  S
Cu250       N252   2.073       .  S
Cu250       N258   2.073       .  S
N251        N252   1.322       .  A
N251        C255   1.345       .  A
N252        C253   1.346       .  A
C253        C254   1.383       .  A
C253        H256   1.082       .  S
C254        C255   1.383       .  A
C255        H257   1.082       .  S
N258        N259   1.321       .  A
N258        C262   1.342       .  A
N259        C260   1.345       .  A
C260        C261   1.388       .  A
C260        H263   1.081       .  S
C261        C262   1.387       .  A
C261        C265   1.487       .  S
C262        H264   1.082       .  S
C265        C266   1.405       .  A
C265        C270   1.414       .  A
C266        C267   1.396       .  A
C266        H271   1.082       .  S
C267        C268   1.409       .  A
C267        O272   1.372       .  S
C268        C269   1.404       .  A
C269        C270   1.402       .  A
C269        H273   1.084       .  S
C270        O274   1.371       .  S
O272        H276   0.992       .  S
O274        H275   0.992       .  S
C277        C278   1.405       .  A
C277        C282   1.412       .  A
C278        C279   1.399       .  A
C278        H283   1.083       .  S
C279        C280   1.410       .  A
C279        O284   1.372       .  S
C280        C281   1.403       .  A
C281        C282   1.399       .  A
C281        H285   1.084       .  S
C282        O286   1.371       .  S
O284        H288   0.992       .  S
O286        H287   0.992       .  S
C289        C290   1.403       .  A
C289        C294   1.408       .  A
C290        C291   1.400       .  A
C290        H295   1.084       .  S
C291        C292   1.412       .  A
C291        O296   1.372       .  S
C292        C293   1.405       .  A
C293        C294   1.400       .  A
C293        H297   1.083       .  S
C294        O298   1.372       .  S
O296        H300   0.992       .  S
O298        H299   0.992       .  S
C301        C302   1.407       .  A
C301        C306   1.412       .  A
C302        C303   1.404       .  A
C302        H307   1.083       .  S
C303        C304   1.410       .  A
C303        O308   1.372       .  S
C304        C305   1.404       .  A
C305        C306   1.400       .  A
C305        H309   1.084       .  S
C306        O310   1.371       .  S
O308        H312   0.992       .  S
O310        H311   0.992       .  S
C313        C314   1.399       .  A
C313        C318   1.406       .  A
C314        C315   1.399       .  A
C314        H319   1.084       .  S
C315        C316   1.413       .  A
C315        O320   1.372       .  S
C316        C317   1.404       .  A
C317        C318   1.399       .  A
C317        H321   1.083       .  S
C318        O322   1.372       .  S
O320        H324   0.992       .  S
O322        H323   0.992       .  S
C325        C326   1.404       .  A
C325        C330   1.411       .  A
C326        C327   1.401       .  A
C326        H331   1.083       .  S
C327        C328   1.411       .  A
C327        O332   1.372       .  S
C328        C329   1.404       .  A
C329        C330   1.397       .  A
C329        H333   1.083       .  S
C330        O334   1.372       .  S
O332        H336   0.992       .  S
O334        H335   0.992       .  S
C337        C338   1.401       .  A
C337        C342   1.406       .  A
C338        C339   1.400       .  A
C338        H343   1.084       .  S
C339        C340   1.411       .  A
C339        O344   1.372       .  S
C340        C341   1.405       .  A
C341        C342   1.399       .  A
C341        H345   1.083       .  S
C342        O346   1.371       .  S
O344        H348   0.992       .  S
O346        H347   0.992       .  S
C349        C350   1.406       .  A
C349        C354   1.412       .  A
C350        C351   1.399       .  A
C350        H355   1.083       .  S
C351        C352   1.410       .  A
C351        O356   1.372       .  S
C352        C353   1.404       .  A
C353        C354   1.401       .  A
C353        H357   1.084       .  S
C354        O358   1.371       .  S
O356        H360   0.992       .  S
O358        H359   0.992       .  S
C361        C362   1.404       .  A
C361        C366   1.407       .  A
C362        C363   1.398   1_655  A
C362        H367   1.084       .  S
C363        C364   1.407       .  A
C363        O368   1.372       .  S
C364        C365   1.404       .  A
C365        C366   1.399   1_455  A
C365        H369   1.084       .  S
C366        O370   1.372       .  S
O368        H372   0.992       .  S
O370        H371   0.992       .  S
C373        C374   1.408       .  A
C373        C378   1.413       .  A
C374        C375   1.403       .  A
C374        H379   1.082       .  S
C375        C376   1.409       .  A
C375        O380   1.372       .  S
C376        C377   1.403       .  A
C377        C378   1.398       .  A
C377        H381   1.084       .  S
C378        O382   1.370       .  S
O380        H384   0.992       .  S
O382        H383   0.992       .  S
C385        C386   1.403       .  A
C385        C390   1.411       .  A
C386        C387   1.397       .  A
C386        H391   1.083       .  S
C387        C388   1.410       .  A
C387        O392   1.371       .  S
C388        C389   1.405       .  A
C389        C390   1.398       .  A
C389        H393   1.083       .  S
C390        O394   1.372       .  S
O392        H396   0.992       .  S
O394        H395   0.992       .  S
C397        C398   1.405       .  A
C397        C402   1.409       .  A
C398        C399   1.399       .  A
C398        H403   1.084       .  S
C399        C400   1.408       .  A
C399        O404   1.372       .  S
C400        C401   1.403       .  A
C401        C402   1.401       .  A
C401        H405   1.084       .  S
C402        O406   1.372       .  S
O404        H408   0.992   1_565  S
O406        H407   0.992       .  S
C409        C410   1.404       .  A
C409        C414   1.410       .  A
C410        C411   1.400       .  A
C410        H415   1.084       .  S
C411        C412   1.412       .  A
C411        O416   1.371       .  S
C412        C413   1.408       .  A
C413        C414   1.401       .  A
C413        H417   1.083       .  S
C414        O418   1.372       .  S
O416        H420   0.992       .  S
O418        H419   0.992       .  S
C421        C422   1.405       .  A
C421        C426   1.411       .  A
C422        C423   1.401       .  A
C422        H427   1.083       .  S
C423        C424   1.406       .  A
C423        O428   1.372       .  S
C424        C425   1.401       .  A
C425        C426   1.401       .  A
C425        H429   1.084       .  S
C426        O430   1.372       .  S
O428        H432   0.992       .  S
O430        H431   0.992       .  S
C433        C434   1.404       .  A
C433        C438   1.410       .  A
C434        C435   1.399   1_655  A
C434        H439   1.084       .  S
C435        C436   1.408       .  A
C435        O440   1.372       .  S
C436        C437   1.403       .  A
C437        C438   1.400   1_455  A
C437        H441   1.084       .  S
C438        O442   1.371       .  S
O440        H444   0.992       .  S
O442        H443   0.992       .  S
C445        C446   1.404       .  A
C445        C450   1.411       .  A
C446        C447   1.403       .  A
C446        H451   1.083       .  S
C447        C448   1.407       .  A
C447        O452   1.371       .  S
C448        C449   1.401       .  A
C449        C450   1.398       .  A
C449        H453   1.084       .  S
C450        O454   1.371       .  S
O452        H456   0.992       .  S
O454        H455   0.992       .  S
C457        C458   1.403       .  A
C457        C462   1.409       .  A
C458        C459   1.400       .  A
C458        H463   1.084       .  S
C459        C460   1.413       .  A
C459        O464   1.370       .  S
C460        C461   1.407       .  A
C461        C462   1.402       .  A
C461        H465   1.082       .  S
C462        O466   1.373       .  S
O464        H468   0.992       .  S
O466        H467   0.992       .  S
C469        C470   1.402       .  A
C469        C474   1.407       .  A
C470        C471   1.400       .  A
C470        H475   1.084       .  S
C471        C472   1.410   1_565  A
C471        O476   1.372   1_565  S
C472        C473   1.405   1_545  A
C473        C474   1.400       .  A
C473        H477   1.084   1_565  S
C474        O478   1.372       .  S
O476        H480   0.992       .  S
O478        H479   0.991       .  S
C481        C482   1.405       .  A
C481        C486   1.410       .  A
C482        C483   1.402       .  A
C482        H487   1.083       .  S
C483        C484   1.411       .  A
C483        O488   1.372       .  S
C484        C485   1.405       .  A
C485        C486   1.400       .  A
C485        H489   1.082       .  S
C486        O490   1.373       .  S
O488        H492   0.992       .  S
O490        H491   0.992       .  S
C493        C494   1.403       .  A
C493        C498   1.407       .  A
C494        C495   1.401       .  A
C494        H499   1.084       .  S
C495        C496   1.409       .  A
C495        O500   1.372       .  S
C496        C497   1.404       .  A
C497        C498   1.399       .  A
C497        H501   1.084       .  S
C498        O502   1.372       .  S
O500        H504   0.992       .  S
O502        H503   0.992       .  S
