geometry optimzed in LAMMPS
_audit_creation_date              2020-11-30 
_audit_creation_method            'lammps2cif' 
_symmetry_space_group_name_H-M    'P1' 
_symmetry_Int_Tables_number       1 
_symmetry_cell_setting            triclinic 
loop_ 
_symmetry_equiv_pos_as_xyz 
  x,y,z 
_cell_length_a                    28.4315446 
_cell_length_b                    28.44895789939289 
_cell_length_c                    28.40887013685398 
_cell_angle_alpha                 96.84310003156808 
_cell_angle_beta                  96.11828026105943 
_cell_angle_gamma                 99.59959841843411 
loop_ 
_atom_site_label 
_atom_site_type_symbol 
_atom_site_fract_x 
_atom_site_fract_y 
_atom_site_fract_z 
_atom_site_charge 
N1          N  0.57207072  0.50867014  0.06859244    -0.05800
N2          N  0.60938536  0.50098622  0.09758803    -0.57900
N3          N  0.53161430  0.59844156  0.02447875    -0.05500
N4          N  0.53246465  0.64227407  0.01551192    -0.60000
N5          N  0.50838960  0.58981333  0.06101570    -0.05100
N6          N  0.49170694  0.62917606  0.07673284    -0.57900
N7          N  0.58722394  0.51899152  0.02843370    -0.04800
N8          N  0.63255820  0.51759590  0.02818506    -0.60400
C9          C  0.64693200  0.50729731  0.07088606     0.96400
C10         C  0.50830490  0.66178071  0.04780751     0.96200
N11         N  0.47737551  0.54984571  0.88804136    -0.06000
N12         N  0.45192192  0.57984042  0.86865696    -0.58500
N13         N  0.57099652  0.49484664  0.92401690    -0.04100
N14         N  0.61458641  0.48540972  0.92749474    -0.59700
N15         N  0.54056135  0.46229838  0.89415534    -0.06000
N16         N  0.56438136  0.42866468  0.87657022    -0.58800
N17         N  0.51415848  0.57543236  0.91693299    -0.03700
N18         N  0.51608325  0.62175677  0.91646527    -0.59800
Mn19       Mn  0.55101001  0.54689600  0.97347014     1.18400
C20         C  0.47736660  0.62483571  0.88673107     0.98500
C21         C  0.61079832  0.44417416  0.89861099     0.99100
N22         N  0.41504125  0.51762050  0.07731908    -0.06000
N23         N  0.39309984  0.54455214  0.10634310    -0.62300
N24         N  0.43726912  0.40745234  0.05020588    -0.04800
N25         N  0.43392880  0.36089945  0.05001568    -0.63000
N26         N  0.47605128  0.43168106  0.07757773    -0.05500
N27         N  0.50108634  0.40035798  0.09484882    -0.62600
N28         N  0.38260071  0.48975745  0.04498208    -0.04400
N29         N  0.33886513  0.49636423  0.05095657    -0.63300
Mn30       Mn  0.49379023  0.51260304  0.07506894     1.10700
C31         C  0.34549829  0.53098666  0.08870861     0.99700
C32         C  0.47357137  0.35613384  0.07738951     0.99800
N33         N  0.44436291  0.39286788  0.90731074    -0.05500
N34         N  0.46271606  0.35446531  0.89257977    -0.60900
N35         N  0.36524179  0.46496646  0.93660130    -0.04900
N36         N  0.32284743  0.47650145  0.93782157    -0.57700
N37         N  0.38445926  0.47756277  0.89886763    -0.06200
N38         N  0.35439655  0.49890509  0.87335330    -0.60500
N39         N  0.41927795  0.38335427  0.94242881    -0.05200
N40         N  0.41905429  0.33934406  0.95137371    -0.57700
Mn41       Mn  0.46102357  0.46942209  0.89314088     1.20200
Mn42       Mn  0.40007294  0.43624895  0.99330967     1.10100
Cl43       Cl  0.47635063  0.49120259  0.98383651    -0.85600
C44         C  0.44567579  0.32123024  0.92046209     0.96700
C45         C  0.31629346  0.49781241  0.89881744     0.96500
N46         N  0.13308509  0.55843634  0.18045417    -0.03200
C47         C  0.18166360  0.57139598  0.17600258    -0.00600
C48         C  0.20737614  0.59716465  0.21748662    -0.23500
C49         C  0.17699397  0.59784112  0.25044479    -0.23700
C50         C  0.13219145  0.57423694  0.22856069    -0.00700
H51         H  0.24603565  0.60885839  0.22466762     0.13100
H52         H  0.18811280  0.60913520  0.28832730     0.13200
N53         N  0.88194068  0.53977951  0.16267089    -0.03200
C54         C  0.83510779  0.54495557  0.15220790    -0.00600
C55         C  0.81974454  0.57272397  0.18837141    -0.23500
C56         C  0.85534149  0.58173084  0.22497563    -0.23700
C57         C  0.89227147  0.55984181  0.21017014    -0.00700
H58         H  0.78362707  0.57973583  0.19017398     0.13100
H59         H  0.85073352  0.59564367  0.26089676     0.13200
N60         N  0.09759399  0.47659896  0.93286207    -0.03200
C61         C  0.07407124  0.44611478  0.89399329    -0.00600
C62         C  0.08618348  0.40108150  0.89772451    -0.23500
C63         C  0.12726954  0.40916121  0.92959488    -0.23700
C64         C  0.13859687  0.45869941  0.94233547    -0.00700
H65         H  0.07643562  0.36930693  0.87121464     0.13100
H66         H  0.15288171  0.38492364  0.92976769     0.13200
N67         N  0.85209838  0.47676336  0.91530612    -0.03200
C68         C  0.85997526  0.50838859  0.88298730    -0.00600
C69         C  0.83740843  0.54728137  0.89514174    -0.23500
C70         C  0.80417142  0.53190439  0.92357925    -0.23700
C71         C  0.80750051  0.48466029  0.92696617    -0.00700
H72         H  0.83676076  0.57944459  0.87868040     0.13100
H73         H  0.77297788  0.54828933  0.92851442     0.13200
N74         N  0.98081883  0.48586550  0.97697073    -0.36300
N75         N  0.06930340  0.51542875  0.05693393    -0.56900
N76         N  0.00160164  0.51754156  0.12819881    -0.36300
N77         N  0.91478375  0.50764569  0.04335274    -0.56900
C78         C  0.02168923  0.49949791  0.95742267     0.27300
C79         C  0.94324396  0.49824484  0.94973698     0.27300
C80         C  0.04423817  0.54584363  0.14889760     0.27300
C81         C  0.96536961  0.53968444  0.14187003     0.27300
C82         C  0.08331842  0.48714510  0.02098832     0.35900
C83         C  0.09581726  0.51079502  0.09856022     0.35900
C84         C  0.88569911  0.48043518  0.00481374     0.35900
C85         C  0.89714287  0.49525741  0.08372313     0.35900
C86         C  0.01027644  0.52171678  0.91818755    -0.21600
C87         C  0.96206726  0.52271191  0.91442330    -0.21600
C88         C  0.03497560  0.58707584  0.17399172    -0.21600
C89         C  0.98562276  0.58337552  0.16953644    -0.21600
C90         C  0.11732090  0.46271840  0.04087434    -0.22600
C91         C  0.12501413  0.47779826  0.08944826    -0.22600
C92         C  0.85041564  0.44918098  0.02086572    -0.22600
C93         C  0.85789718  0.45809348  0.07051894    -0.22600
C94         C  0.06752353  0.48715619  0.97104892    -0.18000
C95         C  0.89313017  0.48423338  0.95598937    -0.18000
C96         C  0.91475180  0.52062708  0.13096709    -0.18000
C97         C  0.09105750  0.53525017  0.14409471    -0.18000
H98         H  0.03336060  0.53625638  0.89398017     0.14900
H99         H  0.94511669  0.54158933  0.88888291     0.14900
H100        H  0.06120599  0.61808637  0.19071397     0.14900
H101        H  0.96700742  0.61128860  0.18268170     0.14900
H102        H  0.13370925  0.43490977  0.02372727     0.13200
H103        H  0.14639069  0.46283170  0.11510190     0.13200
H104        H  0.82477120  0.42040670  0.99932734     0.13200
H105        H  0.83754811  0.43823003  0.09402788     0.13200
H106        H  0.97840827  0.46563065  0.00526588     0.26500
H107        H  0.99732257  0.48388198  0.10742598     0.26500
N108        N  0.90991076  0.47027395  0.44916837    -0.05800
N109        N  0.89208672  0.49262287  0.41461518    -0.57900
N110        N  0.93351597  0.37570762  0.50275577    -0.05500
N111        N  0.92470903  0.32877534  0.49918383    -0.60000
N112        N  0.89954299  0.39460162  0.52189118    -0.05100
N113        N  0.86688994  0.35981145  0.53285661    -0.57900
N114        N  0.94014836  0.44452555  0.43185154    -0.04800
N115        N  0.94247628  0.44733332  0.38648086    -0.60400
C116        C  0.91230712  0.47667401  0.37542511     0.96400
C117        C  0.88347229  0.31907084  0.51787790     0.96200
N118        N  0.08158379  0.41536177  0.54564733    -0.06000
N119        N  0.10379028  0.38861111  0.57298788    -0.58500
N120        N  0.04847116  0.45809840  0.44386247    -0.04100
N121        N  0.04685824  0.46089152  0.39790059    -0.59700
N122        N  0.08276126  0.49107406  0.46906884    -0.06000
N123        N  0.10481860  0.51766961  0.43942312    -0.58800
N124        N  0.04508734  0.38761653  0.51777354    -0.03700
N125        N  0.04216675  0.34237408  0.52455716    -0.59800
Mn126      Mn  0.99200685  0.41554867  0.47407017     1.18400
C127        C  0.07834453  0.34299568  0.55940792     0.98500
C128        C  0.08216764  0.49748114  0.39481026     0.99100
N129        N  0.90548939  0.47810066  0.61033035    -0.06000
N130        N  0.87526925  0.45976099  0.63918635    -0.62300
N131        N  0.94872475  0.57946450  0.56980836    -0.04800
N132        N  0.95329207  0.62602727  0.56955459    -0.63000
N133        N  0.91430193  0.55544863  0.53706146    -0.05500
N134        N  0.89473106  0.58633396  0.51302442    -0.62600
N135        N  0.94424098  0.50326887  0.63678670    -0.04400
N136        N  0.94216023  0.50234042  0.68253824    -0.63300
Mn137      Mn  0.90384323  0.47454940  0.52893699     1.10700
C138        C  0.89956731  0.47489964  0.68429941     0.99700
C139        C  0.92015008  0.63020027  0.53409369     0.99800
N140        N  0.08785984  0.57764223  0.55792364    -0.05500
N141        N  0.11200428  0.61661955  0.54301790    -0.60900
N142        N  0.05227380  0.51715620  0.64823106    -0.04900
N143        N  0.04990351  0.50960490  0.69241541    -0.57700
N144        N  0.08578156  0.49734887  0.62953384    -0.06200
N145        N  0.10663842  0.47427619  0.66172773    -0.60500
N146        N  0.05455081  0.59117063  0.58225763    -0.05200
N147        N  0.05476256  0.63710673  0.58484414    -0.57700
Mn148      Mn  0.08835055  0.49637573  0.55024118     1.20200
Mn149      Mn  0.00005339  0.54744904  0.60955320     1.10100
Cl150      Cl  0.99600178  0.48342757  0.54048476    -0.85600
C151        C  0.09038702  0.65347828  0.56120025     0.96700
C152        C  0.08335976  0.48284357  0.70061518     0.96500
N153        N  0.50361784  0.88682669  0.08009808    -0.03200
C154        C  0.53966094  0.90367816  0.11764565    -0.00600
C155        C  0.57328425  0.87363647  0.11741301    -0.23500
C156        C  0.55233906  0.83278321  0.08863401    -0.23700
C157        C  0.50976584  0.84111107  0.06563419    -0.00700
H158        H  0.60301166  0.87444072  0.14493524     0.13100
H159        H  0.56580469  0.79946521  0.08758064     0.13200
N160        N  0.52180199  0.13690218  0.10676866    -0.03200
C161        C  0.52785158  0.18473204  0.09881641    -0.00600
C162        C  0.55889689  0.21469946  0.13495842    -0.23500
C163        C  0.57173912  0.18752788  0.16754357    -0.23700
C164        C  0.54699284  0.14134569  0.15234350    -0.00700
H165        H  0.56826382  0.25359818  0.13915870     0.13100
H166        H  0.59134926  0.20160687  0.20260418     0.13200
N167        N  0.46180794  0.09860299  0.86541457    -0.03200
C168        C  0.45466105  0.14420864  0.87986219    -0.00600
C169        C  0.42002747  0.15760756  0.84904950    -0.23500
C170        C  0.40535456  0.12076422  0.81371499    -0.23700
C171        C  0.43400512  0.08686885  0.82142144    -0.00700
H172        H  0.40888423  0.19225793  0.85044253     0.13100
H173        H  0.38364653  0.12357735  0.78080134     0.13200
N174        N  0.43941212  0.84659924  0.83898562    -0.03200
C175        C  0.41875326  0.84409228  0.79165972    -0.00600
C176        C  0.39160446  0.79916746  0.77498954    -0.23500
C177        C  0.39895205  0.77072215  0.80851545    -0.23700
C178        C  0.42912471  0.79863680  0.84653212    -0.00700
H179        H  0.37441673  0.78624820  0.73878412     0.13100
H180        H  0.38696484  0.73206947  0.80379110     0.13200
N181        N  0.48177766  0.07044637  0.98148879    -0.36300
N182        N  0.48710215  0.00457231  0.04855366    -0.56900
N183        N  0.47862119  0.91269065  0.96479678    -0.36300
N184        N  0.46959267  0.97839388  0.89691744    -0.56900
C185        C  0.50928716  0.09674795  0.02152026     0.27300
C186        C  0.50328688  0.08290423  0.94305871     0.27300
C187        C  0.45815162  0.90018795  0.00366505     0.27300
C188        C  0.45084019  0.88602580  0.92518902     0.27300
C189        C  0.48802077  0.04480702  0.08071221     0.35900
C190        C  0.47777651  0.96559715  0.07173513     0.35900
C191        C  0.48381589  0.01734094  0.87489152     0.35900
C192        C  0.47290591  0.93799197  0.86665739     0.35900
C193        C  0.54867980  0.12498838  0.00807532    -0.21600
C194        C  0.54537571  0.11556496  0.95905585    -0.21600
C195        C  0.41635881  0.86691942  0.98860505    -0.21600
C196        C  0.41201795  0.85746774  0.93939728    -0.21600
C197        C  0.47677326  0.02976016  0.12347823    -0.22600
C198        C  0.47084025  0.98039679  0.11791000    -0.22600
C199        C  0.49875224  0.00182433  0.83204378    -0.22600
C200        C  0.49172789  0.95234953  0.82675349    -0.22600
C201        C  0.50199427  0.09337598  0.07025695    -0.18000
C202        C  0.48586567  0.06675962  0.89375504    -0.18000
C203        C  0.45840775  0.88947743  0.87654144    -0.18000
C204        C  0.47665853  0.91680068  0.05254086    -0.18000
H205        H  0.57861502  0.14753017  0.03137035     0.14900
H206        H  0.57263937  0.12939690  0.93828759     0.14900
H207        H  0.39048191  0.85240797  0.01052530     0.14900
H208        H  0.38193554  0.83458856  0.91664771     0.14900
H209        H  0.47064904  0.04997305  0.15535929     0.13200
H210        H  0.45981760  0.95787288  0.14426685     0.13200
H211        H  0.51764646  0.02361038  0.80908385     0.13200
H212        H  0.50390765  0.93112042  0.79863064     0.13200
H213        H  0.44960752  0.04624245  0.98024315     0.26500
H214        H  0.51047886  0.93720682  0.96546421     0.26500
N215        N  0.12756298  0.89155257  0.54423390    -0.03200
C216        C  0.12407948  0.84749673  0.56062947    -0.00600
C217        C  0.16637967  0.84345943  0.58708497    -0.23500
C218        C  0.19827498  0.88330442  0.58533986    -0.23700
C219        C  0.17611558  0.91041162  0.55544212    -0.00700
H220        H  0.17485590  0.81199362  0.60178070     0.13100
H221        H  0.23651500  0.88567687  0.59533698     0.13200
N222        N  0.88943058  0.08835049  0.50929764    -0.03200
C223        C  0.85996989  0.06816806  0.53921900    -0.00600
C224        C  0.88549694  0.07976571  0.58464174    -0.23500
C225        C  0.91649150  0.12191233  0.58307289    -0.23700
C226        C  0.90746121  0.13163613  0.53627417    -0.00700
H227        H  0.87685338  0.06573278  0.61688163     0.13100
H228        H  0.93358035  0.14666262  0.61439486     0.13200
N229        N  0.13904681  0.13511745  0.51899612    -0.03200
C230        C  0.13790450  0.18314196  0.53567532    -0.00600
C231        C  0.17263043  0.21383184  0.51782275    -0.23500
C232        C  0.19988330  0.18670882  0.49525048    -0.23700
C233        C  0.18130220  0.13960205  0.49847243    -0.00700
H234        H  0.18039862  0.25278294  0.52446431     0.13100
H235        H  0.23335283  0.20020797  0.48232158     0.13200
N236        N  0.86996501  0.84780393  0.48764656    -0.03200
C237        C  0.82112739  0.84857414  0.47651854    -0.00600
C238        C  0.79353418  0.80302987  0.46935373    -0.23500
C239        C  0.82339999  0.77224026  0.47675201    -0.23700
C240        C  0.86885669  0.79934953  0.48952201    -0.00700
H241        H  0.75471043  0.79350141  0.46168107     0.13100
H242        H  0.81267997  0.73386196  0.47678117     0.13200
N243        N  0.93116616  0.97584249  0.50218410    -0.36300
N244        N  0.01370256  0.06258495  0.51140006    -0.56900
N245        N  0.08935086  0.00496401  0.53287386    -0.36300
N246        N  0.00113678  0.90865494  0.50083298    -0.56900
C247        C  0.91257062  0.00989005  0.48112447     0.27300
C248        C  0.90722343  0.93266553  0.47911685     0.27300
C249        C  0.11059236  0.04269353  0.51205142     0.27300
C250        C  0.10201810  0.96374208  0.51204741     0.27300
C251        C  0.97481607  0.08112957  0.49551198     0.35900
C252        C  0.05295737  0.09514576  0.50604431     0.35900
C253        C  0.96002268  0.88514316  0.51499977     0.35900
C254        C  0.03934612  0.90040810  0.52994527     0.35900
C255        C  0.87787610  0.98883414  0.44343080    -0.21600
C256        C  0.87587236  0.93983278  0.44106246    -0.21600
C257        C  0.13308316  0.02388077  0.47519943    -0.21600
C258        C  0.12903795  0.97490922  0.47608177    -0.21600
C259        C  0.98923255  0.12355241  0.47774239    -0.22600
C260        C  0.03852447  0.13118112  0.48225103    -0.22600
C261        C  0.97248150  0.86438466  0.55496031    -0.22600
C262        C  0.02210046  0.87449898  0.56458579    -0.22600
C263        C  0.92603425  0.05964522  0.49567683    -0.18000
C264        C  0.91222310  0.88811023  0.49459540    -0.18000
C265        C  0.08907941  0.91650987  0.52493858    -0.18000
C266        C  0.10178470  0.09133584  0.51927830    -0.18000
H267        H  0.85815935  0.00695323  0.41876648     0.14900
H268        H  0.85488213  0.91264404  0.41364141     0.14900
H269        H  0.14467459  0.04176081  0.44612326     0.14900
H270        H  0.14013454  0.94983944  0.44978431     0.14900
H271        H  0.96671761  0.14579390  0.46157208     0.13200
H272        H  0.06102912  0.16053383  0.46989666     0.13200
H273        H  0.94887362  0.84829838  0.57803673     0.13200
H274        H  0.04271548  0.86794994  0.59636480     0.13200
H275        H  0.95677682  0.98196272  0.53275926     0.26500
H276        H  0.06813197  0.00725723  0.56003069     0.26500
N277        N  0.51669021  0.08439144  0.40912656    -0.05800
N278        N  0.54169054  0.11320818  0.38333225    -0.57900
N279        N  0.40849416  0.04376698  0.43963303    -0.05500
N280        N  0.36204770  0.04312915  0.43457718    -0.60000
N281        N  0.43149244  0.07907358  0.47224760    -0.05100
N282        N  0.39990137  0.10314903  0.49063362    -0.57900
N283        N  0.49080920  0.04732972  0.38044955    -0.04800
N284        N  0.49740097  0.04928031  0.33587867    -0.60400
C285        C  0.52933319  0.08975236  0.33769365     0.96400
C286        C  0.35670745  0.08023090  0.46588366     0.96200
N287        N  0.40838262  0.90319246  0.44984396    -0.06000
N288        N  0.37228072  0.88507018  0.47237298    -0.58500
N289        N  0.47506017  0.93963020  0.36488895    -0.04100
N290        N  0.48253539  0.94065060  0.32048436    -0.59700
N291        N  0.49325204  0.90548967  0.38351577    -0.06000
N292        N  0.51434134  0.88207428  0.35072422    -0.58800
N293        N  0.39391334  0.93471689  0.42397834    -0.03700
N294        N  0.34868643  0.93736836  0.42655131    -0.59800
Mn295      Mn  0.44185944  0.99119581  0.40182167     1.18400
C296        C  0.33502256  0.90611489  0.45611069     0.98500
C297        C  0.50686112  0.90512632  0.31179384     0.99100
N298        N  0.50568984  0.08036681  0.56607839    -0.06000
N299        N  0.48246303  0.10162821  0.59841867    -0.62300
N300        N  0.60490476  0.05217313  0.52402303    -0.04800
N301        N  0.65119220  0.05369817  0.52688815    -0.63000
N302        N  0.59152442  0.08673249  0.50193988    -0.05500
N303        N  0.63008873  0.11295237  0.48879212    -0.62600
N304        N  0.52477107  0.04655891  0.58452247    -0.04400
N305        N  0.51598912  0.04397707  0.62840013    -0.63300
Mn306      Mn  0.51185770  0.08638966  0.48809570     1.10700
C307        C  0.48992431  0.07806066  0.63699389     0.99700
C308        C  0.66672513  0.09101212  0.50485799     0.99800
N309        N  0.56989065  0.90884163  0.47568161    -0.05500
N310        N  0.60235838  0.88711621  0.45537259    -0.60900
N311        N  0.51074741  0.93884385  0.57003823    -0.04900
N312        N  0.50193358  0.93778702  0.61431877    -0.57700
N313        N  0.48334650  0.90325421  0.54077956    -0.06200
N314        N  0.45448909  0.87686183  0.56552727    -0.60500
N315        N  0.59254950  0.94421804  0.50838399    -0.05200
N316        N  0.63929369  0.94732814  0.51156176    -0.57700
Mn317      Mn  0.48825637  0.90142583  0.46178325     1.20200
Mn318      Mn  0.55857540  0.99550063  0.54712417     1.10100
Cl319      Cl  0.50010763  0.99363043  0.47472235    -0.85600
C320        C  0.64572809  0.91205223  0.47860083     0.96700
C321        C  0.46656886  0.89965466  0.61140496     0.96500
C322        C  0.76213427  0.88539651  0.43185895    -0.05500
C323        C  0.79263041  0.88814290  0.47538823     0.00500
C324        C  0.77590439  0.90576875  0.51803831    -0.08100
C325        C  0.72790439  0.91225450  0.51660413    -0.05500
C326        C  0.69549795  0.90288477  0.47406301     0.00500
C327        C  0.71350193  0.89126057  0.43047797    -0.08000
C328        C  0.68140088  0.88314501  0.38305067     0.62400
H329        H  0.77443395  0.87114807  0.39922793     0.13100
H330        H  0.71509072  0.92323134  0.55009215     0.13100
C331        C  0.80527809  0.91333428  0.56683367     0.62600
F332        F  0.70689149  0.87525082  0.34483282    -0.22600
F333        F  0.66050834  0.92303700  0.37764350    -0.19900
F334        F  0.64577443  0.84326716  0.38154532    -0.19600
F335        F  0.85322893  0.91263763  0.56419198    -0.19600
F336        F  0.78716118  0.87779866  0.59275316    -0.19900
F337        F  0.80215060  0.95769864  0.59090524    -0.22600
C338        C  0.29850319  0.09985689  0.52048574    -0.05500
C339        C  0.30837261  0.09007117  0.47361796     0.00500
C340        C  0.27120822  0.08710267  0.43506319    -0.08100
C341        C  0.22583989  0.09564296  0.44533626    -0.05500
C342        C  0.21580362  0.10634503  0.49234051     0.00500
C343        C  0.25271164  0.10716736  0.53069967    -0.08000
C344        C  0.24773615  0.12583537  0.58177263     0.62400
H345        H  0.32754532  0.10323612  0.54934563     0.13100
H346        H  0.19878318  0.09846768  0.41644814     0.13100
C347        C  0.28010568  0.07922453  0.38303430     0.62600
F348        F  0.28007673  0.11089149  0.61414878    -0.22600
F349        F  0.20194747  0.10944755  0.59211215    -0.19900
F350        F  0.25705751  0.17552554  0.58768120    -0.19600
F351        F  0.28611182  0.03234793  0.37052664    -0.19600
F352        F  0.32074280  0.11069426  0.37634727    -0.19900
F353        F  0.24201323  0.08712701  0.35217074    -0.22600
C354        C  0.78549192  0.06475699  0.48391451    -0.05500
C355        C  0.80820788  0.07569792  0.53148742     0.00500
C356        C  0.78418780  0.10092490  0.56576671    -0.08100
C357        C  0.74394771  0.12000360  0.54894280    -0.05500
C358        C  0.71863166  0.10360306  0.50348277     0.00500
C359        C  0.73977692  0.07544568  0.47023913    -0.08000
C360        C  0.71244162  0.05439817  0.42145566     0.62400
H361        H  0.80291778  0.04558291  0.45777991     0.13100
H362        H  0.72616659  0.14028002  0.57411122     0.13100
C363        C  0.79386396  0.10152092  0.61977293     0.62600
F364        F  0.74000681  0.03022826  0.39313634    -0.22600
F365        F  0.69889547  0.09105791  0.39838990    -0.19900
F366        F  0.67172009  0.02214309  0.42644675    -0.19600
F367        F  0.83565171  0.13278079  0.63929772    -0.19600
F368        F  0.79610701  0.05544614  0.62957641    -0.19900
F369        F  0.75724669  0.11610798  0.64308617    -0.22600
C370        C  0.20450675  0.89661639  0.47717912    -0.05500
C371        C  0.20866307  0.92748968  0.52072934     0.00500
C372        C  0.25442485  0.95585128  0.53872496    -0.08100
C373        C  0.29520846  0.94567620  0.51827141    -0.05500
C374        C  0.29128858  0.91006243  0.47873042     0.00500
C375        C  0.24517667  0.88819023  0.45533337    -0.08000
C376        C  0.23963833  0.85537045  0.40809447     0.62400
H377        H  0.16968231  0.87579196  0.46264111     0.13100
H378        H  0.33063423  0.96541847  0.53332953     0.13100
C379        C  0.26082628  0.99284372  0.58288110     0.62600
F380        F  0.19198661  0.83626238  0.39141795    -0.22600
F381        F  0.26409992  0.81781135  0.41359448    -0.19900
F382        F  0.25845359  0.88109617  0.37393411    -0.19600
F383        F  0.22250960  0.01702751  0.58152396    -0.19600
F384        F  0.30295002  0.02576557  0.58528392    -0.19900
F385        F  0.26302811  0.97116472  0.62381628    -0.22600
C386        C  0.40072540  0.88409952  0.72009579    -0.05500
C387        C  0.43603996  0.86940468  0.75148578     0.00500
C388        C  0.47806465  0.85852891  0.73194682    -0.08100
C389        C  0.48604205  0.86934371  0.68625281    -0.05500
C390        C  0.45093455  0.88313200  0.65562864     0.00500
C391        C  0.40680289  0.88907518  0.67174412    -0.08000
C392        C  0.36623942  0.89839878  0.63688958     0.62400
H393        H  0.36654087  0.88741687  0.73247970     0.13100
H394        H  0.51965552  0.86524454  0.67291711     0.13100
C395        C  0.51341546  0.83239300  0.75712124     0.62600
F396        F  0.32407683  0.89808221  0.65718972    -0.22600
F397        F  0.35707663  0.86277210  0.59776915    -0.19900
F398        F  0.37922064  0.94248793  0.62140845    -0.19600
F399        F  0.48979999  0.78850509  0.76599411    -0.19600
F400        F  0.53519039  0.86019456  0.79915740    -0.19900
F401        F  0.54939224  0.82309178  0.73000222    -0.22600
C402        C  0.49618239  0.09601291  0.76956112    -0.05500
C403        C  0.45174928  0.06965445  0.77663479     0.00500
C404        C  0.41845000  0.04802731  0.73605818    -0.08100
C405        C  0.42976532  0.05571615  0.69017126    -0.05500
C406        C  0.47303304  0.08483563  0.68383600     0.00500
C407        C  0.50700260  0.10493118  0.72413900    -0.08000
C408        C  0.55404799  0.13714049  0.71906946     0.62400
H409        H  0.52098528  0.11300654  0.80046658     0.13100
H410        H  0.40497076  0.03817337  0.65897553     0.13100
C411        C  0.36909472  0.02044512  0.74053463     0.62600
F412        F  0.58039240  0.15624730  0.76299101    -0.22600
F413        F  0.54422474  0.17491899  0.69550905    -0.19900
F414        F  0.58227509  0.11141466  0.69328149    -0.19600
F415        F  0.33439348  0.04649580  0.72651158    -0.19600
F416        F  0.36457323  0.01077163  0.78661665    -0.19900
F417        F  0.36084221  0.97716835  0.71126037    -0.22600
C418        C  0.57754912  0.10515013  0.22103879    -0.05500
C419        C  0.53692328  0.11537746  0.19354642     0.00500
C420        C  0.49659927  0.12339541  0.21753819    -0.08100
C421        C  0.49703863  0.11677763  0.26560408    -0.05500
C422        C  0.53779179  0.10807333  0.29261171     0.00500
C423        C  0.57916103  0.10330786  0.27070395    -0.08000
C424        C  0.62514186  0.09910858  0.30077372     0.62400
H425        H  0.60982614  0.10361749  0.20423931     0.13100
H426        H  0.46551759  0.11960638  0.28335868     0.13100
C427        C  0.45496342  0.14363341  0.19464484     0.62600
F428        F  0.66295489  0.09841592  0.27393299    -0.22600
F429        F  0.61836662  0.05741685  0.32168519    -0.19900
F430        F  0.63761934  0.13830980  0.33634174    -0.19600
F431        F  0.43562028  0.11655954  0.15141662    -0.19600
F432        F  0.47121721  0.19058674  0.18801360    -0.19900
F433        F  0.41808905  0.14380811  0.22281627    -0.22600
C434        C  0.49261628  0.87440174  0.17987108    -0.05500
C435        C  0.52817155  0.91012760  0.16776448     0.00500
C436        C  0.56095452  0.93958189  0.20487183    -0.08100
C437        C  0.55717393  0.93192286  0.25256910    -0.05500
C438        C  0.52145119  0.89622655  0.26418985     0.00500
C439        C  0.48821690  0.86744686  0.22732218    -0.08000
C440        C  0.44717151  0.83059734  0.23842811     0.62400
H441        H  0.46955560  0.85013124  0.15164298     0.13100
H442        H  0.58036583  0.95572837  0.28156251     0.13100
C443        C  0.59883442  0.97953817  0.19378368     0.62600
F444        F  0.42028619  0.80444368  0.19734717    -0.25000
F445        F  0.41665604  0.85354289  0.26390158    -0.19900
F446        F  0.46544950  0.79873233  0.26528457    -0.19600
F447        F  0.57676944  0.00942306  0.16743015    -0.19600
F448        F  0.63162293  0.96107786  0.16784502    -0.19900
F449        F  0.62412388  0.00664165  0.23499352    -0.22600
C450        C  0.86177577  0.23626976  0.48089828    -0.05500
C451        C  0.86372751  0.26899344  0.52217718     0.00500
C452        C  0.86734082  0.25275077  0.56678652    -0.08100
C453        C  0.87717666  0.20624280  0.56904869    -0.05500
C454        C  0.88506420  0.17566079  0.52821366     0.00500
C455        C  0.87225648  0.18979032  0.48230043    -0.08000
C456        C  0.87135127  0.16190807  0.43273694     0.62400
H457        H  0.85742505  0.24940284  0.44661637     0.13100
H458        H  0.88242133  0.19581915  0.60406234     0.13100
C459        C  0.86500802  0.28604821  0.61207886     0.62600
F460        F  0.90730051  0.18539920  0.41020701    -0.22600
F461        F  0.82751779  0.16140259  0.40604943    -0.19900
F462        F  0.87698791  0.11494042  0.43154509    -0.19600
F463        F  0.86531435  0.26225114  0.65183671    -0.19600
F464        F  0.82306043  0.30462749  0.60733742    -0.19900
F465        F  0.90397840  0.32356881  0.61995065    -0.22600
C466        C  0.89931216  0.70814903  0.55924287    -0.05500
C467        C  0.91390571  0.67830492  0.52318711     0.00500
C468        C  0.93176228  0.69853293  0.48407110    -0.08100
C469        C  0.92657434  0.74612343  0.47820227    -0.05500
C470        C  0.90453800  0.77353534  0.51081231     0.00500
C471        C  0.89422471  0.75530552  0.55394180    -0.08000
C472        C  0.87164627  0.78155913  0.59285271     0.62400
H473        H  0.88972768  0.69372330  0.59132844     0.13100
H474        H  0.93418382  0.75990177  0.44534541     0.13100
C475        C  0.95458111  0.66919387  0.44823596     0.62600
F476        F  0.90159333  0.78747565  0.63561943    -0.22600
F477        F  0.82770294  0.75455963  0.59785996    -0.19900
F478        F  0.86419941  0.82633611  0.58347739    -0.19600
F479        F  0.92032560  0.63086133  0.42538136    -0.19600
F480        F  0.99230913  0.65214755  0.47131663    -0.19900
F481        F  0.97229162  0.69609896  0.41441525    -0.22600
C482        C  0.06480822  0.21029436  0.56606771    -0.05500
C483        C  0.11324192  0.20636663  0.57489017     0.00500
C484        C  0.14249590  0.24715901  0.60469105    -0.08100
C485        C  0.13200309  0.29351002  0.60079178    -0.05500
C486        C  0.08699095  0.29792033  0.57853702     0.00500
C487        C  0.05090639  0.25585611  0.57047625    -0.08000
C488        C  0.99835175  0.25769174  0.57101501     0.62400
H489        H  0.03757780  0.17833272  0.56039182     0.13100
H490        H  0.15877444  0.32535926  0.61440823     0.13100
C491        C  0.18690376  0.24267394  0.63642097     0.62600
F492        F  0.98023326  0.22748835  0.60200464    -0.22600
F493        F  0.97431524  0.24262361  0.52552312    -0.19900
F494        F  0.99068166  0.30325927  0.58718058    -0.19600
F495        F  0.22756318  0.26543258  0.61995650    -0.19600
F496        F  0.18961748  0.19490577  0.63822340    -0.19900
F497        F  0.18486357  0.26407279  0.68232152    -0.22600
C498        C  0.09928318  0.72202711  0.51300199    -0.05500
C499        C  0.09884633  0.70586344  0.55767167     0.00500
C500        C  0.08904164  0.73770195  0.59667471    -0.08100
C501        C  0.07654173  0.78198527  0.58867073    -0.05500
C502        C  0.08778972  0.80225000  0.54772138     0.00500
C503        C  0.09401014  0.76984705  0.50755591    -0.08000
C504        C  0.09735728  0.78502899  0.45886807     0.62400
H505        H  0.10279599  0.69716142  0.48210290     0.13100
H506        H  0.07098542  0.80562405  0.61959182     0.13100
C507        C  0.09357737  0.72772274  0.64830353     0.62600
F508        F  0.06491576  0.75323939  0.42520745    -0.22600
F509        F  0.14324927  0.78411760  0.44751916    -0.19900
F510        F  0.08689947  0.83050937  0.45705370    -0.19600
F511        F  0.11864758  0.69087583  0.65518746    -0.19600
F512        F  0.04817866  0.71624179  0.66174654    -0.19900
F513        F  0.11844036  0.76839653  0.67802772    -0.22600
C514        C  0.86548545  0.52925822  0.79945042    -0.05500
C515        C  0.87221749  0.49577079  0.83171318     0.00500
C516        C  0.88486930  0.45116759  0.81176574    -0.08100
C517        C  0.89024226  0.44377888  0.76215283    -0.05500
C518        C  0.87997429  0.47653059  0.73089943     0.00500
C519        C  0.86609078  0.51932357  0.74992150    -0.08000
C520        C  0.85396493  0.55602416  0.71789331     0.62400
H521        H  0.85885964  0.56424926  0.81229483     0.13100
H522        H  0.90353352  0.41247123  0.74722324     0.13100
C523        C  0.89208243  0.41039531  0.84060145     0.62600
F524        F  0.83090000  0.58958884  0.74078832    -0.22600
F525        F  0.82354183  0.53297288  0.67751703    -0.19900
F526        F  0.89557108  0.58021601  0.70430452    -0.19600
F527        F  0.85177745  0.39564676  0.86195031    -0.19600
F528        F  0.93145646  0.42469125  0.87492697    -0.19900
F529        F  0.90027325  0.37034879  0.81207685    -0.22600
C530        C  0.04981632  0.42516892  0.80632800    -0.05500
C531        C  0.07358919  0.46077038  0.84432819     0.00500
C532        C  0.10242030  0.50318556  0.83185291    -0.08100
C533        C  0.11169630  0.50317692  0.78425134    -0.05500
C534        C  0.08985725  0.46669532  0.74757374     0.00500
C535        C  0.05744721  0.42741929  0.75839033    -0.08000
C536        C  0.03119929  0.38798188  0.71903255     0.62400
H537        H  0.02567816  0.39453186  0.81469873     0.13100
H538        H  0.13304354  0.53504118  0.77440562     0.13100
C539        C  0.12280288  0.55187439  0.86251785     0.62600
F540        F  0.00174047  0.35230908  0.73685616    -0.22600
F541        F  0.06454376  0.36708048  0.69586511    -0.19900
F542        F  0.00280708  0.40692269  0.68626446    -0.19600
F543        F  0.11478755  0.55629917  0.90931403    -0.19600
F544        F  0.10252148  0.58699557  0.84236903    -0.19900
F545        F  0.17192356  0.56263360  0.86175336    -0.22600
C546        C  0.91894651  0.49340914  0.24485542    -0.05500
C547        C  0.92369519  0.54356570  0.24788475     0.00500
C548        C  0.93421467  0.57128048  0.29418880    -0.08100
C549        C  0.92941983  0.54789739  0.33457511    -0.05500
C550        C  0.91486349  0.49816937  0.33061637     0.00500
C551        C  0.91210782  0.46988437  0.28522851    -0.08000
C552        C  0.89850048  0.41529844  0.27854733     0.62400
H553        H  0.91352417  0.47237185  0.20979692     0.13100
H554        H  0.93677068  0.56875662  0.36969040     0.13100
C555        C  0.94562740  0.62579707  0.30276085     0.62600
F556        F  0.89054540  0.39579177  0.23070699    -0.22600
F557        F  0.85669674  0.40188205  0.29823379    -0.19900
F558        F  0.93496324  0.39577908  0.30041645    -0.19600
F559        F  0.90958596  0.64346599  0.32441692    -0.19600
F560        F  0.95046627  0.64545891  0.26099765    -0.19900
F561        F  0.98807771  0.64051658  0.33317661    -0.22600
C562        C  0.09001257  0.50622467  0.26165235    -0.05500
C563        C  0.09755087  0.55611422  0.26131261     0.00500
C564        C  0.09292403  0.58612096  0.30411103    -0.08100
C565        C  0.08944416  0.56579513  0.34698157    -0.05500
C566        C  0.08785481  0.51651521  0.34833512     0.00500
C567        C  0.08572833  0.48573216  0.30431573    -0.08000
C568        C  0.08214434  0.43157061  0.30233449     0.62400
H569        H  0.09257135  0.48359157  0.22895073     0.13100
H570        H  0.08741510  0.58830806  0.37996797     0.13100
C571        C  0.09073901  0.63942523  0.30466027     0.62600
F572        F  0.08836685  0.40984828  0.25769657    -0.22600
F573        F  0.03731106  0.41106166  0.31205543    -0.19900
F574        F  0.11725311  0.42170458  0.33538199    -0.19600
F575        F  0.05230196  0.64409911  0.27276441    -0.19600
F576        F  0.13199414  0.66512668  0.29219456    -0.19900
F577        F  0.08452567  0.66077616  0.34944099    -0.22600
C578        C  0.53299690  0.24666879  0.04700175    -0.05500
C579        C  0.50183646  0.20969504  0.06345441     0.00500
C580        C  0.45684334  0.22070363  0.07388686    -0.08100
C581        C  0.45097316  0.26912311  0.08172826    -0.05500
C582        C  0.48705517  0.30736671  0.07579388     0.00500
C583        C  0.52795739  0.29570969  0.05595818    -0.08000
C584        C  0.56623909  0.33487276  0.04479646     0.62400
H585        H  0.56623193  0.23812970  0.03592735     0.13100
H586        H  0.41697696  0.27703292  0.09149589     0.13100
C587        C  0.41354668  0.18273460  0.07612472     0.62600
F588        F  0.58449419  0.36690857  0.08572606    -0.22600
F589        F  0.54646192  0.35903578  0.01042612    -0.19900
F590        F  0.60405007  0.31613540  0.02801330    -0.19600
F591        F  0.39955764  0.18777954  0.12122618    -0.19600
F592        F  0.42230252  0.13689571  0.06432865    -0.19900
F593        F  0.37570402  0.18869521  0.04415159    -0.22600
C594        C  0.45632373  0.72364018  0.06147172    -0.05500
C595        C  0.49641852  0.70980225  0.04308744     0.00500
C596        C  0.52152228  0.73977323  0.01330773    -0.08100
C597        C  0.50267478  0.78001314  0.00116050    -0.05500
C598        C  0.47658328  0.80155068  0.03369569     0.00500
C599        C  0.44598283  0.76987156  0.05722485    -0.08000
C600        C  0.39968689  0.78214111  0.07251234     0.62400
H601        H  0.43365976  0.69872839  0.07920481     0.13100
H602        H  0.52216092  0.80344784  0.97959655     0.13100
C603        C  0.57366094  0.73816582  0.00544466     0.62600
F604        F  0.36424954  0.77063509  0.03359759    -0.22600
F605        F  0.40477643  0.83046463  0.08951889    -0.19900
F606        F  0.38496334  0.75600837  0.10809682    -0.19600
F607        F  0.57518665  0.70917482  0.96330774    -0.19600
F608        F  0.59772371  0.72130178  0.04309306    -0.19900
F609        F  0.59893151  0.78374052  0.00329005    -0.22600
C610        C  0.50123282  0.70964963  0.87494930    -0.05500
C611        C  0.46423778  0.67322954  0.88272849     0.00500
C612        C  0.42239394  0.68737421  0.89850174    -0.08100
C613        C  0.41654782  0.73615074  0.89898750    -0.05500
C614        C  0.45064688  0.77120624  0.88309055     0.00500
C615        C  0.49618052  0.75829041  0.87754690    -0.08000
C616        C  0.54137295  0.79425737  0.87632285     0.62400
H617        H  0.53562714  0.70023884  0.86836855     0.13100
H618        H  0.38218005  0.74559591  0.90526324     0.13100
C619        C  0.38413560  0.65106932  0.91443256     0.62600
F620        F  0.57616038  0.78945187  0.91224114    -0.22600
F621        F  0.53386314  0.84095094  0.88352671    -0.19900
F622        F  0.55907562  0.78519722  0.83339069    -0.19600
F623        F  0.40409798  0.63112984  0.95215636    -0.19600
F624        F  0.36544642  0.61498633  0.87686758    -0.19900
F625        F  0.34668482  0.67198554  0.92938545    -0.22600
C626        C  0.68007685  0.43538926  0.85703632    -0.05500
C627        C  0.65522447  0.42333654  0.89453788     0.00500
C628        C  0.68261549  0.41612839  0.93686850    -0.08100
C629        C  0.73313223  0.43212669  0.94444697    -0.05500
C630        C  0.75878418  0.45089265  0.90906040     0.00500
C631        C  0.73091733  0.44812293  0.86245233    -0.08000
C632        C  0.75200474  0.45922339  0.81751179     0.62400
H633        H  0.65871136  0.44042214  0.82471575     0.13100
H634        H  0.75186484  0.43348330  0.97975635     0.13100
C635        C  0.65755039  0.39130672  0.97380382     0.62600
F636        F  0.71853507  0.44615021  0.77687242    -0.22600
F637        F  0.78742741  0.43275698  0.81090500    -0.19900
F638        F  0.76883153  0.50782115  0.82023987    -0.19600
F639        F  0.63324499  0.34649219  0.95204003    -0.19600
F640        F  0.62508950  0.41748537  0.99162509    -0.19900
F641        F  0.68973292  0.38509858  0.01171898    -0.22600
C642        C  0.44849211  0.19445382  0.94954482    -0.05500
C643        C  0.48074775  0.18088521  0.91896286     0.00500
C644        C  0.51304718  0.21843726  0.90401892    -0.08100
C645        C  0.50274374  0.26518050  0.90857110    -0.05500
C646        C  0.45972566  0.27396585  0.92425029     0.00500
C647        C  0.43112420  0.23739589  0.94457951    -0.08000
C648        C  0.37886381  0.23876390  0.95135042     0.62400
H649        H  0.42658178  0.16590835  0.96379727     0.13100
H650        H  0.52576709  0.29348775  0.89504301     0.13100
C651        C  0.55213438  0.20946464  0.87385521     0.62600
F652        F  0.35309231  0.19325423  0.95274683    -0.22600
F653        F  0.35626443  0.25625253  0.91327750    -0.19900
F654        F  0.37647875  0.26756355  0.99341856    -0.19600
F655        F  0.53984133  0.21982737  0.82828197    -0.19600
F656        F  0.55891727  0.16253866  0.87035978    -0.19900
F657        F  0.59504018  0.23904774  0.89377560    -0.22600
C658        C  0.25695648  0.54006759  0.92780816    -0.05500
C659        C  0.27038692  0.51369013  0.88782881     0.00500
C660        C  0.23464333  0.47970949  0.85844158    -0.08100
C661        C  0.19228684  0.46269052  0.87695157    -0.05500
C662        C  0.18303273  0.48150974  0.92294692     0.00500
C663        C  0.21445394  0.52327840  0.94710475    -0.08000
C664        C  0.20622328  0.54696523  0.99526828     0.62400
H665        H  0.28435256  0.56773558  0.94914991     0.13100
H666        H  0.16680589  0.43363249  0.85527216     0.13100
C667        C  0.24237224  0.45726221  0.80956307     0.62600
F668        F  0.23825501  0.58965065  0.00970408    -0.22600
F669        F  0.21204084  0.51605091  0.02852448    -0.19900
F670        F  0.16064499  0.55773662  0.99366245    -0.19600
F671        F  0.24296743  0.40878683  0.80978007    -0.19600
F672        F  0.28505462  0.47901438  0.79591518    -0.19900
F673        F  0.20521143  0.46241612  0.77613737    -0.22600
C674        C  0.23883490  0.58893023  0.11874448    -0.05500
C675        C  0.21238006  0.55323626  0.14125793     0.00500
C676        C  0.23431424  0.51280436  0.15042731    -0.08100
C677        C  0.27708348  0.50699126  0.13176539    -0.05500
C678        C  0.30372365  0.54327400  0.11145525     0.00500
C679        C  0.28549312  0.58582723  0.10646632    -0.08000
C680        C  0.31686578  0.62866542  0.09153644     0.62400
H681        H  0.22522477  0.62203503  0.11623493     0.13100
H682        H  0.29186068  0.47476203  0.13621452     0.13100
C683        C  0.21883280  0.47773539  0.18482792     0.62600
F684        F  0.29259127  0.66659212  0.08738519    -0.22600
F685        F  0.33236305  0.61591078  0.04806490    -0.19900
F686        F  0.35660437  0.64428218  0.12574278    -0.19600
F687        F  0.17663380  0.48368490  0.20252790    -0.19600
F688        F  0.25470502  0.48377664  0.22315582    -0.19900
F689        F  0.21269683  0.43098482  0.16192969    -0.22600
C690        C  0.78345772  0.54073625  0.07931706    -0.05500
C691        C  0.79731822  0.51633014  0.11630554     0.00500
C692        C  0.76235348  0.48223694  0.13268084    -0.08100
C693        C  0.71348586  0.48019163  0.11734990    -0.05500
C694        C  0.69894988  0.50989132  0.08518857     0.00500
C695        C  0.73474751  0.54017718  0.06457730    -0.08000
C696        C  0.72306620  0.57552742  0.03047589     0.62400
H697        H  0.81117039  0.56578451  0.06727246     0.13100
H698        H  0.68652059  0.45621128  0.13164925     0.13100
C699        C  0.77479617  0.45262637  0.17160157     0.62600
F700        F  0.76352544  0.60753950  0.02416249    -0.22600
F701        F  0.69124667  0.60269310  0.04852440    -0.19900
F702        F  0.70365378  0.55079805  0.98591304    -0.19600
F703        F  0.76086162  0.47161196  0.21392779    -0.19600
F704        F  0.82339543  0.45183461  0.17889021    -0.19900
F705        F  0.75067281  0.40561756  0.15898825    -0.22600
loop_ 
_geom_bond_atom_site_label_1 
_geom_bond_atom_site_label_2 
_geom_bond_distance 
_geom_bond_site_symmetry_2 
_ccdc_geom_bond_type 
N1            N2   1.336       .  A
N1            N7   1.310       .  A
N1          Mn30   2.273       .  S
N2            C9   1.374       .  A
N3            N5   1.314       .  A
N3            N4   1.299       .  A
N3          Mn19   2.118   1_554  S
N4           C10   1.327       .  A
N5            N6   1.335       .  A
N5          Mn30   2.258       .  S
N6           C10   1.370       .  A
N7            N8   1.297       .  A
N7          Mn19   2.087   1_554  S
N8            C9   1.320       .  A
C9          C694   1.479       .  S
C10         C595   1.479       .  S
N11          N17   1.311       .  A
N11          N12   1.337       .  A
N11         Mn41   2.283       .  S
N12          C20   1.371       .  A
N13          N14   1.307       .  A
N13          N15   1.310       .  A
N13         Mn19   2.108       .  S
N14          C21   1.331       .  A
N15          N16   1.341       .  A
N15         Mn41   2.301       .  S
N16          C21   1.376       .  A
N17          N18   1.312       .  A
N17         Mn19   2.138       .  S
N18          C20   1.336       .  A
Mn19        Cl43   2.495       .  S
C20         C611   1.499       .  S
C21         C627   1.492       .  S
N22          N23   1.332       .  A
N22          N28   1.313       .  A
N22         Mn30   2.274       .  S
N23          C31   1.366       .  A
N24          N26   1.316       .  A
N24          N25   1.311       .  A
N24         Mn42   2.155   1_554  S
N25          C32   1.335       .  A
N26          N27   1.335       .  A
N26         Mn30   2.284       .  S
N27          C32   1.372       .  A
N28          N29   1.314       .  A
N28         Mn42   2.143   1_554  S
N29          C31   1.341       .  A
Mn30        Cl43   2.566   1_554  S
C31         C678   1.483       .  S
C32         C582   1.497       .  S
N33          N34   1.330       .  A
N33          N39   1.315       .  A
N33         Mn41   2.244       .  S
N34          C44   1.365       .  A
N35          N36   1.304       .  A
N35          N37   1.314       .  A
N35         Mn42   2.118       .  S
N36          C45   1.336       .  A
N37          N38   1.331       .  A
N37         Mn41   2.248       .  S
N38          C45   1.363       .  A
N39          N40   1.306       .  A
N39         Mn42   2.139       .  S
N40          C44   1.332       .  A
Mn41        Cl43   2.550       .  S
Mn42        Cl43   2.513       .  S
C44         C646   1.478       .  S
C45         C659   1.466       .  S
N46          C50   1.391       .  A
N46          C47   1.392       .  A
N46          C97   1.497       .  S
C47         C675   1.489       .  S
C47          C48   1.376       .  A
C48          C49   1.340       .  A
C48          H51   1.084       .  S
C49          C50   1.381       .  A
C49          H52   1.083       .  S
C50         C563   1.497       .  S
N53          C57   1.382       .  A
N53          C54   1.369       .  A
N53          C96   1.487       .  S
C54         C691   1.461       .  S
C54          C55   1.374       .  A
C55          C56   1.341       .  A
C55          H58   1.084       .  S
C56          C57   1.385       .  A
C56          H59   1.079       .  S
C57         C547   1.488       .  S
N60          C64   1.362       .  A
N60          C61   1.356       .  A
N60          C94   1.484       .  S
C61         C531   1.517       .  S
C61          C62   1.394       .  A
C62          C63   1.368       .  A
C62          H65   1.082       .  S
C63          C64   1.387       .  A
C63          H66   1.083       .  S
C64         C662   1.510       .  S
N67          C71   1.391       .  A
N67          C68   1.370       .  A
N67          C95   1.521       .  S
C68         C515   1.548       .  S
C68          C69   1.396       .  A
C69          C70   1.359       .  A
C69          H72   1.078       .  S
C70          C71   1.377       .  A
C70          H73   1.083       .  S
C71         C630   1.546       .  S
N74          C79   1.370       .  A
N74          C78   1.359   1_655  A
N74         H106   1.045   1_556  S
N75          C82   1.359       .  A
N75          C83   1.365       .  A
N76          C81   1.361   1_455  A
N76          C80   1.369       .  A
N76         H107   1.045   1_455  S
N77          C84   1.369       .  A
N77          C85   1.361       .  A
C78          C86   1.381       .  A
C78          C94   1.431       .  A
C79          C95   1.450       .  A
C79          C87   1.391       .  A
C80          C88   1.377       .  A
C80          C97   1.430       .  A
C81          C96   1.437       .  A
C81          C89   1.388       .  A
C82          C94   1.442   1_554  A
C82          C90   1.392       .  A
C83          C97   1.425       .  A
C83          C91   1.373       .  A
C84          C92   1.379       .  A
C84          C95   1.439   1_554  A
C85          C93   1.388       .  A
C85          C96   1.442       .  A
C86          C87   1.369   1_455  A
C86          H98   1.072       .  S
C87          H99   1.073       .  S
C88          C89   1.380   1_455  A
C88         H100   1.080       .  S
C89         H101   1.078       .  S
C90          C91   1.378       .  A
C90         H102   1.077       .  S
C91         H103   1.071       .  S
C92          C93   1.390       .  A
C92         H104   1.078   1_554  S
C93         H105   1.079       .  S
N108        N109   1.332       .  A
N108        N114   1.316       .  A
N108       Mn137   2.281       .  S
N109        C116   1.371       .  A
N110        N112   1.316       .  A
N110        N111   1.306       .  A
N110       Mn126   2.144       .  S
N111        C117   1.339       .  A
N112        N113   1.329       .  A
N112       Mn137   2.241       .  S
N113        C117   1.362       .  A
N114        N115   1.309       .  A
N114       Mn126   2.134       .  S
N115        C116   1.332       .  A
C116        C550   1.480       .  S
C117        C451   1.466       .  S
N118        N124   1.315       .  A
N118        N119   1.333       .  A
N118       Mn148   2.267       .  S
N119        C127   1.365       .  A
N120        N121   1.314       .  A
N120        N122   1.315       .  A
N120       Mn126   2.161   1_455  S
N121        C128   1.338       .  A
N122        N123   1.335       .  A
N122       Mn148   2.280       .  S
N123        C128   1.371       .  A
N124        N125   1.314       .  A
N124       Mn126   2.165   1_455  S
N125        C127   1.346       .  A
Mn126      Cl150   2.513       .  S
C127        C486   1.498       .  S
C128        C566   1.500       .  S
N129        N130   1.336       .  A
N129        N135   1.313       .  A
N129       Mn137   2.298       .  S
N130        C138   1.373       .  A
N131        N133   1.312       .  A
N131        N132   1.310       .  A
N131       Mn149   2.138   1_655  S
N132        C139   1.334       .  A
N133        N134   1.332       .  A
N133       Mn137   2.251       .  S
N134        C139   1.366       .  A
N135        N136   1.311       .  A
N135       Mn149   2.127   1_655  S
N136        C138   1.336       .  A
Mn137      Cl150   2.572       .  S
C138        C518   1.489       .  S
C139        C467   1.473       .  S
N140        N141   1.342       .  A
N140        N146   1.312       .  A
N140       Mn148   2.299       .  S
N141        C151   1.378       .  A
N142        N143   1.305       .  A
N142        N144   1.313       .  A
N142       Mn149   2.112       .  S
N143        C152   1.332       .  A
N144        N145   1.333       .  A
N144       Mn148   2.259       .  S
N145        C152   1.365       .  A
N146        N147   1.299       .  A
N146       Mn149   2.096       .  S
N147        C151   1.325       .  A
Mn148      Cl150   2.570   1_455  S
Mn149      Cl150   2.492   1_455  S
C151        C499   1.487       .  S
C152        C534   1.465       .  S
N153        C157   1.362       .  A
N153        C154   1.378       .  A
N153        C204   1.475       .  S
C154        C435   1.491       .  S
C154        C155   1.384       .  A
C155        C156   1.346       .  A
C155        H158   1.084       .  S
C156        C157   1.383       .  A
C156        H159   1.078       .  S
C157        C598   1.483       .  S
N160        C164   1.392       .  A
N160        C161   1.391       .  A
N160        C201   1.504       .  S
C161        C579   1.499       .  S
C161        C162   1.381       .  A
C162        C163   1.334       .  A
C162        H165   1.083       .  S
C163        C164   1.378       .  A
C163        H166   1.084       .  S
C164        C419   1.485       .  S
N167        C171   1.378       .  A
N167        C168   1.368       .  A
N167        C202   1.483       .  S
C168        C643   1.471       .  S
C168        C169   1.379       .  A
C169        C170   1.340       .  A
C169        H172   1.082       .  S
C170        C171   1.384       .  A
C170        H173   1.083       .  S
C171        C403   1.478       .  S
N174        C178   1.394       .  A
N174        C175   1.397       .  A
N174        C203   1.505       .  S
C175        C387   1.503       .  S
C175        C176   1.379       .  A
C176        C177   1.343       .  A
C176        H179   1.084       .  S
C177        C178   1.380       .  A
C177        H180   1.083       .  S
C178        C614   1.510       .  S
N181        C186   1.362       .  A
N181        C185   1.370   1_556  A
N181        H213   1.044       .  S
N182        C189   1.372       .  A
N182        C190   1.359   1_545  A
N183        C188   1.368       .  A
N183        C187   1.359   1_556  A
N183        H214   1.044       .  S
N184        C191   1.361   1_565  A
N184        C192   1.374       .  A
C185        C193   1.382       .  A
C185        C201   1.434       .  A
C186        C202   1.429       .  A
C186        C194   1.384       .  A
C187        C195   1.382   1_554  A
C187        C204   1.426       .  A
C188        C203   1.433       .  A
C188        C196   1.384       .  A
C189        C201   1.447       .  A
C189        C197   1.387       .  A
C190        C204   1.424       .  A
C190        C198   1.374       .  A
C191        C199   1.379       .  A
C191        C202   1.433       .  A
C192        C200   1.380       .  A
C192        C203   1.443       .  A
C193        C194   1.376   1_554  A
C193        H205   1.082       .  S
C194        H206   1.075       .  S
C195        C196   1.380       .  A
C195        H207   1.076   1_556  S
C196        H208   1.081       .  S
C197        C198   1.374   1_545  A
C197        H209   1.060       .  S
C198        H210   1.080       .  S
C199        C200   1.376   1_545  A
C199        H211   1.076       .  S
C200        H212   1.066       .  S
N215        C219   1.383       .  A
N215        C216   1.380       .  A
N215        C265   1.492       .  S
C216        C502   1.490       .  S
C216        C217   1.378       .  A
C217        C218   1.338       .  A
C217        H220   1.083       .  S
C218        C219   1.385       .  A
C218        H221   1.083       .  S
C219        C371   1.491       .  S
N222        C226   1.359       .  A
N222        C223   1.364       .  A
N222        C263   1.481       .  S
C223        C355   1.519       .  S
C223        C224   1.386       .  A
C224        C225   1.373       .  A
C224        H227   1.078       .  S
C225        C226   1.396       .  A
C225        H228   1.081       .  S
C226        C454   1.526       .  S
N229        C233   1.384       .  A
N229        C230   1.399       .  A
N229        C266   1.496       .  S
C230        C483   1.521       .  S
C230        C231   1.385       .  A
C231        C232   1.340       .  A
C231        H234   1.083       .  S
C232        C233   1.374       .  A
C232        H235   1.084       .  S
C233        C342   1.481       .  S
N236        C240   1.381       .  A
N236        C237   1.395       .  A
N236        C264   1.494       .  S
C237        C323   1.494       .  S
C237        C238   1.378       .  A
C238        C239   1.337       .  A
C238        H241   1.084       .  S
C239        C240   1.378       .  A
C239        H242   1.084       .  S
C240        C470   1.469       .  S
N243        C248   1.355       .  A
N243        C247   1.348   1_565  A
N243        H275   1.050       .  S
N244        C251   1.360   1_455  A
N244        C252   1.361       .  A
N245        C250   1.370   1_545  A
N245        C249   1.370       .  A
N245        H276   1.031       .  S
N246        C253   1.371   1_455  A
N246        C254   1.363       .  A
C247        C255   1.380   1_545  A
C247        C263   1.403       .  A
C248        C264   1.414       .  A
C248        C256   1.383       .  A
C249        C257   1.384       .  A
C249        C266   1.442       .  A
C250        C265   1.434       .  A
C250        C258   1.378       .  A
C251        C263   1.420       .  A
C251        C259   1.380       .  A
C252        C266   1.424       .  A
C252        C260   1.387       .  A
C253        C261   1.381       .  A
C253        C264   1.439       .  A
C254        C262   1.381       .  A
C254        C265   1.439       .  A
C255        C256   1.379       .  A
C255        H267   1.081   1_565  S
C256        H268   1.079       .  S
C257        C258   1.382   1_545  A
C257        H269   1.073       .  S
C258        H270   1.079       .  S
C259        C260   1.372   1_655  A
C259        H271   1.078       .  S
C260        H272   1.081       .  S
C261        C262   1.383   1_655  A
C261        H273   1.074       .  S
C262        H274   1.076       .  S
N277        N278   1.332       .  A
N277        N283   1.314       .  A
N277       Mn306   2.257       .  S
N278        C285   1.367       .  A
N279        N281   1.313       .  A
N279        N280   1.310       .  A
N279       Mn295   2.144   1_545  S
N280        C286   1.337       .  A
N281        N282   1.330       .  A
N281       Mn306   2.251       .  S
N282        C286   1.366       .  A
N283        N284   1.306       .  A
N283       Mn295   2.127   1_545  S
N284        C285   1.334       .  A
C285        C422   1.467       .  S
C286        C339   1.481       .  S
N287        N293   1.315       .  A
N287        N288   1.331       .  A
N287       Mn317   2.270       .  S
N288        C296   1.366       .  A
N289        N290   1.304       .  A
N289        N291   1.312       .  A
N289       Mn295   2.110       .  S
N290        C297   1.331       .  A
N291        N292   1.332       .  A
N291       Mn317   2.258       .  S
N292        C297   1.367       .  A
N293        N294   1.310       .  A
N293       Mn295   2.128       .  S
N294        C296   1.334       .  A
Mn295      Cl319   2.497       .  S
C296        C374   1.474       .  S
C297        C438   1.462       .  S
N298        N299   1.333       .  A
N298        N304   1.314       .  A
N298       Mn306   2.265       .  S
N299        C307   1.367       .  A
N300        N302   1.314       .  A
N300        N301   1.303       .  A
N300       Mn318   2.120   1_545  S
N301        C308   1.332       .  A
N302        N303   1.334       .  A
N302       Mn306   2.255       .  S
N303        C308   1.366       .  A
N304        N305   1.305       .  A
N304       Mn318   2.116   1_545  S
N305        C307   1.331       .  A
Mn306      Cl319   2.581   1_545  S
C307        C406   1.464       .  S
C308        C358   1.465       .  S
N309        N310   1.336       .  A
N309        N315   1.313       .  A
N309       Mn317   2.282       .  S
N310        C320   1.372       .  A
N311        N312   1.311       .  A
N311        N313   1.312       .  A
N311       Mn318   2.140       .  S
N312        C321   1.339       .  A
N313        N314   1.332       .  A
N313       Mn317   2.258       .  S
N314        C321   1.366       .  A
N315        N316   1.310       .  A
N315       Mn318   2.142       .  S
N316        C320   1.338       .  A
Mn317      Cl319   2.565       .  S
Mn318      Cl319   2.492       .  S
C320        C326   1.497       .  S
C321        C390   1.479       .  S
C322        C323   1.419       .  A
C322        C327   1.417       .  A
C322        H329   1.083       .  S
C323        C324   1.415       .  A
C324        C325   1.404       .  A
C324        C331   1.512       .  S
C325        C326   1.409       .  A
C325        H330   1.085       .  S
C326        C327   1.414       .  A
C327        C328   1.515       .  S
C328        F332   1.385       .  S
C328        F333   1.383       .  S
C328        F334   1.382       .  S
C331        F335   1.377       .  S
C331        F336   1.384       .  S
C331        F337   1.383       .  S
C338        C339   1.395       .  A
C338        C343   1.407       .  A
C338        H345   1.083       .  S
C339        C340   1.423       .  A
C340        C341   1.406       .  A
C340        C347   1.523       .  S
C341        C342   1.404       .  A
C341        H346   1.083       .  S
C342        C343   1.425       .  A
C343        C344   1.514       .  S
C344        F348   1.384       .  S
C344        F349   1.382       .  S
C344        F350   1.381       .  S
C347        F351   1.382       .  S
C347        F352   1.384       .  S
C347        F353   1.385       .  S
C354        C355   1.410       .  A
C354        C359   1.409       .  A
C354        H361   1.080       .  S
C355        C356   1.438       .  A
C356        C357   1.409       .  A
C356        C363   1.527       .  S
C357        C358   1.396       .  A
C357        H362   1.084       .  S
C358        C359   1.413       .  A
C359        C360   1.517       .  S
C360        F364   1.384       .  S
C360        F365   1.381       .  S
C360        F366   1.384       .  S
C363        F367   1.378       .  S
C363        F368   1.382       .  S
C363        F369   1.386       .  S
C370        C371   1.411       .  A
C370        C375   1.411       .  A
C370        H377   1.077       .  S
C371        C372   1.419       .  A
C372        C373   1.408       .  A
C372        C379   1.512       .  S
C373        C374   1.402       .  A
C373        H378   1.084       .  S
C374        C375   1.411       .  A
C375        C376   1.518       .  S
C376        F380   1.383       .  S
C376        F381   1.384       .  S
C376        F382   1.383       .  S
C379        F383   1.382   1_565  S
C379        F384   1.382   1_565  S
C379        F385   1.380       .  S
C386        C387   1.420       .  A
C386        C391   1.423       .  A
C386        H393   1.083       .  S
C387        C388   1.434       .  A
C388        C389   1.402       .  A
C388        C395   1.516       .  S
C389        C390   1.391       .  A
C389        H394   1.084       .  S
C390        C391   1.410       .  A
C391        C392   1.517       .  S
C392        F396   1.384       .  S
C392        F397   1.383       .  S
C392        F398   1.384       .  S
C395        F399   1.380       .  S
C395        F400   1.374       .  S
C395        F401   1.385       .  S
C402        C403   1.405       .  A
C402        C407   1.400       .  A
C402        H409   1.075       .  S
C403        C404   1.417       .  A
C404        C405   1.409       .  A
C404        C411   1.515       .  S
C405        C406   1.405       .  A
C405        H410   1.084       .  S
C406        C407   1.412       .  A
C407        C408   1.521       .  S
C408        F412   1.384       .  S
C408        F413   1.383       .  S
C408        F414   1.382       .  S
C411        F415   1.383       .  S
C411        F416   1.384       .  S
C411        F417   1.371   1_545  S
C418        C419   1.415       .  A
C418        C423   1.414       .  A
C418        H425   1.083       .  S
C419        C420   1.431       .  A
C420        C421   1.399       .  A
C420        C427   1.519       .  S
C421        C422   1.394       .  A
C421        H426   1.084       .  S
C422        C423   1.407       .  A
C423        C424   1.514       .  S
C424        F428   1.384       .  S
C424        F429   1.383       .  S
C424        F430   1.383       .  S
C427        F431   1.376       .  S
C427        F432   1.381       .  S
C427        F433   1.385       .  S
C434        C435   1.410       .  A
C434        C439   1.401       .  A
C434        H441   1.075       .  S
C435        C436   1.415       .  A
C436        C437   1.410       .  A
C436        C443   1.517       .  S
C437        C438   1.407       .  A
C437        H442   1.084       .  S
C438        C439   1.410       .  A
C439        C440   1.520       .  S
C440        F444   1.383       .  S
C440        F445   1.383       .  S
C440        F446   1.383       .  S
C443        F447   1.381   1_565  S
C443        F448   1.380       .  S
C443        F449   1.379   1_565  S
C450        C451   1.398       .  A
C450        C455   1.407       .  A
C450        H457   1.086       .  S
C451        C452   1.399       .  A
C452        C453   1.405       .  A
C452        C459   1.519       .  S
C453        C454   1.426       .  A
C453        H458   1.074       .  S
C454        C455   1.438       .  A
C455        C456   1.527       .  S
C456        F460   1.384       .  S
C456        F461   1.385       .  S
C456        F462   1.369       .  S
C459        F463   1.384       .  S
C459        F464   1.383       .  S
C459        F465   1.383       .  S
C466        C467   1.394       .  A
C466        C471   1.397       .  A
C466        H473   1.086       .  S
C467        C468   1.414       .  A
C468        C469   1.413       .  A
C468        C475   1.508       .  S
C469        C470   1.405       .  A
C469        H474   1.083       .  S
C470        C471   1.426       .  A
C471        C472   1.519       .  S
C472        F476   1.383       .  S
C472        F477   1.384       .  S
C472        F478   1.377       .  S
C475        F479   1.379       .  S
C475        F480   1.384       .  S
C475        F481   1.383       .  S
C482        C483   1.399       .  A
C482        C487   1.412       .  A
C482        H489   1.075       .  S
C483        C484   1.431       .  A
C484        C485   1.414       .  A
C484        C491   1.504       .  S
C485        C486   1.398       .  A
C485        H490   1.083       .  S
C486        C487   1.419       .  A
C487        C488   1.505   1_455  S
C488        F492   1.381       .  S
C488        F493   1.380       .  S
C488        F494   1.383       .  S
C491        F495   1.383       .  S
C491        F496   1.381       .  S
C491        F497   1.383       .  S
C498        C499   1.401       .  A
C498        C503   1.418       .  A
C498        H505   1.084       .  S
C499        C500   1.427       .  A
C500        C501   1.402       .  A
C500        C507   1.523       .  S
C501        C502   1.402       .  A
C501        H506   1.083       .  S
C502        C503   1.425       .  A
C503        C504   1.505       .  S
C504        F508   1.382       .  S
C504        F509   1.381       .  S
C504        F510   1.381       .  S
C507        F511   1.383       .  S
C507        F512   1.383       .  S
C507        F513   1.385       .  S
C514        C515   1.420       .  A
C514        C519   1.404       .  A
C514        H521   1.072       .  S
C515        C516   1.444       .  A
C516        C517   1.428       .  A
C516        C523   1.526       .  S
C517        C518   1.405       .  A
C517        H522   1.083       .  S
C518        C519   1.407       .  A
C519        C520   1.522       .  S
C520        F524   1.384       .  S
C520        F525   1.383       .  S
C520        F526   1.382       .  S
C523        F527   1.380       .  S
C523        F528   1.375       .  S
C523        F529   1.385       .  S
C530        C531   1.416       .  A
C530        C535   1.409       .  A
C530        H537   1.083       .  S
C531        C532   1.445       .  A
C532        C533   1.405       .  A
C532        C539   1.533       .  S
C533        C534   1.392       .  A
C533        H538   1.087       .  S
C534        C535   1.411       .  A
C535        C536   1.520       .  S
C536        F540   1.385       .  S
C536        F541   1.383       .  S
C536        F542   1.383       .  S
C539        F543   1.367       .  S
C539        F544   1.384       .  S
C539        F545   1.382       .  S
C546        C547   1.402       .  A
C546        C551   1.410       .  A
C546        H553   1.081       .  S
C547        C548   1.425       .  A
C548        C549   1.401       .  A
C548        C555   1.515       .  S
C549        C550   1.394       .  A
C549        H554   1.079       .  S
C550        C551   1.424       .  A
C551        C552   1.520       .  S
C552        F556   1.385       .  S
C552        F557   1.383       .  S
C552        F558   1.381       .  S
C555        F559   1.383       .  S
C555        F560   1.381       .  S
C555        F561   1.379       .  S
C562        C563   1.401       .  A
C562        C567   1.414       .  A
C562        H569   1.082       .  S
C563        C564   1.431       .  A
C564        C565   1.415       .  A
C564        C571   1.526       .  S
C565        C566   1.400       .  A
C565        H570   1.083       .  S
C566        C567   1.428       .  A
C567        C568   1.521       .  S
C568        F572   1.385       .  S
C568        F573   1.381       .  S
C568        F574   1.383       .  S
C571        F575   1.378       .  S
C571        F576   1.378       .  S
C571        F577   1.385       .  S
C578        C579   1.416       .  A
C578        C583   1.422       .  A
C578        H585   1.083       .  S
C579        C580   1.419       .  A
C580        C581   1.409       .  A
C580        C587   1.509       .  S
C581        C582   1.405       .  A
C581        H586   1.085       .  S
C582        C583   1.416       .  A
C583        C584   1.510       .  S
C584        F588   1.383       .  S
C584        F589   1.383       .  S
C584        F590   1.381       .  S
C587        F591   1.380       .  S
C587        F592   1.377       .  S
C587        F593   1.379       .  S
C594        C595   1.398       .  A
C594        C599   1.411       .  A
C594        H601   1.083       .  S
C595        C596   1.432       .  A
C596        C597   1.406       .  A
C596        C603   1.530       .  S
C597        C598   1.394       .  A
C597        H602   1.083   1_554  S
C598        C599   1.422       .  A
C599        C600   1.511       .  S
C600        F604   1.382       .  S
C600        F605   1.380       .  S
C600        F606   1.384       .  S
C603        F607   1.379   1_554  S
C603        F608   1.385       .  S
C603        F609   1.385       .  S
C610        C611   1.403       .  A
C610        C615   1.409       .  A
C610        H617   1.085       .  S
C611        C612   1.417       .  A
C612        C613   1.423       .  A
C612        C619   1.515       .  S
C613        C614   1.420       .  A
C613        H618   1.083       .  S
C614        C615   1.423       .  A
C615        C616   1.510       .  S
C616        F620   1.379       .  S
C616        F621   1.375       .  S
C616        F622   1.381       .  S
C619        F623   1.384       .  S
C619        F624   1.382       .  S
C619        F625   1.384       .  S
C626        C627   1.385       .  A
C626        C631   1.417       .  A
C626        H633   1.084       .  S
C627        C628   1.417       .  A
C628        C629   1.417       .  A
C628        C635   1.509       .  S
C629        C630   1.408       .  A
C629        H634   1.078       .  S
C630        C631   1.455       .  A
C631        C632   1.512       .  S
C632        F636   1.386       .  S
C632        F637   1.370       .  S
C632        F638   1.376       .  S
C635        F639   1.383       .  S
C635        F640   1.379       .  S
C635        F641   1.385   1_556  S
C642        C643   1.397       .  A
C642        C647   1.408       .  A
C642        H649   1.084       .  S
C643        C644   1.424       .  A
C644        C645   1.403       .  A
C644        C651   1.510       .  S
C645        C646   1.396       .  A
C645        H650   1.085       .  S
C646        C647   1.428       .  A
C647        C648   1.525       .  S
C648        F652   1.384       .  S
C648        F653   1.385       .  S
C648        F654   1.381       .  S
C651        F655   1.384       .  S
C651        F656   1.374       .  S
C651        F657   1.383       .  S
C658        C659   1.408       .  A
C658        C663   1.414       .  A
C658        H665   1.084       .  S
C659        C660   1.401       .  A
C660        C661   1.401       .  A
C660        C667   1.512       .  S
C661        C662   1.420       .  A
C661        H666   1.082       .  S
C662        C663   1.415       .  A
C663        C664   1.511       .  S
C664        F668   1.380   1_556  S
C664        F669   1.381   1_556  S
C664        F670   1.378       .  S
C667        F671   1.383       .  S
C667        F672   1.383       .  S
C667        F673   1.382       .  S
C674        C675   1.417       .  A
C674        C679   1.421       .  A
C674        H681   1.083       .  S
C675        C676   1.434       .  A
C676        C677   1.404       .  A
C676        C683   1.524       .  S
C677        C678   1.395       .  A
C677        H682   1.085       .  S
C678        C679   1.410       .  A
C679        C680   1.517       .  S
C680        F684   1.384       .  S
C680        F685   1.383       .  S
C680        F686   1.383       .  S
C683        F687   1.377       .  S
C683        F688   1.384       .  S
C683        F689   1.384       .  S
C690        C691   1.385       .  A
C690        C695   1.400       .  A
C690        H697   1.084       .  S
C691        C692   1.425       .  A
C692        C693   1.401       .  A
C692        C699   1.515       .  S
C693        C694   1.393       .  A
C693        H698   1.085       .  S
C694        C695   1.441       .  A
C695        C696   1.528       .  S
C696        F700   1.385       .  S
C696        F701   1.384       .  S
C696        F702   1.383   1_554  S
C699        F703   1.383       .  S
C699        F704   1.380       .  S
C699        F705   1.384       .  S
