geometry optimzed in LAMMPS
_audit_creation_date              2020-11-30 
_audit_creation_method            'lammps2cif' 
_symmetry_space_group_name_H-M    'P1' 
_symmetry_Int_Tables_number       1 
_symmetry_cell_setting            triclinic 
loop_ 
_symmetry_equiv_pos_as_xyz 
  x,y,z 
_cell_length_a                    28.688323437386796 
_cell_length_b                    28.360324644266797 
_cell_length_c                    32.4243137238178 
_cell_angle_alpha                 90.35556853323052 
_cell_angle_beta                  93.4087333312324 
_cell_angle_gamma                 89.99969210031617 
loop_ 
_atom_site_label 
_atom_site_type_symbol 
_atom_site_fract_x 
_atom_site_fract_y 
_atom_site_fract_z 
_atom_site_charge 
N1          N  0.24659938  0.75662854  0.31989680    -0.07160
N2          N  0.21990335  0.79451989  0.32119687    -0.59280
N3          N  0.31164770  0.69003385  0.26247798    -0.06840
N4          N  0.32913755  0.69020121  0.22572650    -0.61410
N5          N  0.26819145  0.67534008  0.25962307    -0.06440
N6          N  0.25507003  0.66547142  0.22076613    -0.59260
N7          N  0.29099919  0.76895742  0.32442394    -0.06120
N8          N  0.29512586  0.81527237  0.32849397    -0.61760
C9          C  0.25042925  0.83093927  0.32648301     0.95010
C10         C  0.29352214  0.67487292  0.19995441     0.94790
N11         N  0.40244540  0.62669017  0.34910146    -0.07350
N12         N  0.43022756  0.59223229  0.33784746    -0.59860
N13         N  0.38471732  0.73797763  0.37856346    -0.05470
N14         N  0.41808773  0.77033146  0.38104096    -0.61110
N15         N  0.39055543  0.70867471  0.40976344    -0.07380
N16         N  0.42697925  0.72117093  0.43397735    -0.60130
N17         N  0.39530689  0.65668668  0.31850802    -0.05110
N18         N  0.41717671  0.64320689  0.28593456    -0.61200
Mn19       Mn  0.34609018  0.71489988  0.32093628     1.18440
C20         C  0.43910649  0.60339396  0.29840629     0.97100
C21         C  0.44392267  0.75983691  0.41614347     0.97760
N22         N  0.20845876  0.60258240  0.31130883    -0.07400
N23         N  0.19854458  0.57206963  0.28059814    -0.63710
N24         N  0.18838533  0.66388027  0.39948685    -0.06200
N25         N  0.15284331  0.66852923  0.42322804    -0.64380
N26         N  0.18092070  0.68840672  0.36554515    -0.06900
N27         N  0.14053254  0.71062800  0.36582580    -0.63970
N28         N  0.21378746  0.57949743  0.34641295    -0.05800
N29         N  0.20801301  0.53398814  0.34069458    -0.64660
Mn30       Mn  0.22468327  0.68075000  0.31275572     1.10660
C31         C  0.19855517  0.52938141  0.29990071     0.98320
C32         C  0.12322834  0.69808025  0.40206793     0.98390
N33         N  0.32321992  0.64757776  0.46180752    -0.06910
N34         N  0.33839820  0.65573157  0.50047803    -0.62290
N35         N  0.29524255  0.55420396  0.40672042    -0.06230
N36         N  0.28867494  0.51140297  0.42097416    -0.59010
N37         N  0.34000288  0.56337944  0.40575005    -0.07540
N38         N  0.36458882  0.52683513  0.41936872    -0.61850
N39         N  0.27793524  0.63925705  0.45988863    -0.06530
N40         N  0.26171483  0.64100583  0.49704354    -0.59040
Mn41       Mn  0.36487095  0.63625648  0.40684127     1.20190
Mn42       Mn  0.24293057  0.60981825  0.40368756     1.10090
Cl43       Cl  0.29457789  0.66109267  0.36134532    -0.87010
C44         C  0.29956210  0.65193805  0.52208896     0.95320
C45         C  0.33222933  0.49432954  0.42805240     0.95120
N46         N  0.31557936  0.65335140  0.96139747    -0.07160
N47         N  0.33068891  0.66420538  0.99962697    -0.59280
N48         N  0.29003757  0.55565697  0.91098631    -0.06840
N49         N  0.28562270  0.51199944  0.92427598    -0.61410
N50         N  0.33432539  0.56630808  0.90871503    -0.06440
N51         N  0.36077778  0.53014553  0.91983976    -0.59260
N52         N  0.27047541  0.64377278  0.96007783    -0.06120
N53         N  0.25442298  0.64728863  0.99723858    -0.61760
C54         C  0.29212867  0.66031541  0.02158665     0.95010
C55         C  0.33010457  0.49617059  0.92865180     0.94790
N56         N  0.20033816  0.59846052  0.81329805    -0.07350
N57         N  0.18932034  0.56699283  0.78369865    -0.59860
N58         N  0.17920149  0.66296439  0.89828245    -0.05470
N59         N  0.14248244  0.66746332  0.92078584    -0.61110
N60         N  0.17191292  0.68569453  0.86327270    -0.07060
N61         N  0.13059306  0.70617780  0.86138080    -0.60130
N62         N  0.20687997  0.57675029  0.84902565    -0.05110
N63         N  0.20088880  0.53110842  0.84473273    -0.61200
Mn64       Mn  0.23567487  0.61008288  0.90534952     1.18440
C65         C  0.18963859  0.52520398  0.80428350     0.97100
C66         C  0.11248948  0.69463779  0.89735848     0.97760
N67         N  0.39549686  0.62568602  0.84938994    -0.07400
N68         N  0.42331909  0.59065915  0.83919510    -0.63710
N69         N  0.37530647  0.73852140  0.87329909    -0.06200
N70         N  0.40789406  0.77143654  0.87291810    -0.64380
N71         N  0.38251201  0.71191532  0.90613734    -0.06900
N72         N  0.41949519  0.72674452  0.92864507    -0.63970
N73         N  0.38752238  0.65364781  0.81750282    -0.05800
N74         N  0.40898067  0.63855815  0.78523455    -0.64660
Mn75       Mn  0.35775031  0.63911824  0.90690891     1.10660
C76         C  0.43120304  0.59951841  0.79902258     0.98320
C77         C  0.43496196  0.76405521  0.90786531     0.98390
N78         N  0.23741300  0.75252140  0.81564841    -0.06910
N79         N  0.21160830  0.79126651  0.81697350    -0.62290
N80         N  0.30328854  0.68137692  0.76120186    -0.06230
N81         N  0.32193515  0.67733840  0.72519374    -0.59010
N82         N  0.25964651  0.66749413  0.75848263    -0.07540
N83         N  0.24751580  0.65406852  0.72020777    -0.61850
N84         N  0.28208825  0.76378355  0.81940902    -0.06530
N85         N  0.28754337  0.80972597  0.82325232    -0.59040
Mn86       Mn  0.21592908  0.67627272  0.81132084     1.20190
Mn87       Mn  0.33716835  0.71052497  0.81766338     1.10090
Cl88       Cl  0.28648929  0.65934517  0.86060992    -0.87010
C89         C  0.24352999  0.82655384  0.82230659     0.95320
C90         C  0.28699583  0.65998068  0.69979887     0.95120
N91         N  0.85678406  0.76637443  0.94889986    -0.07160
N92         N  0.88702842  0.74774442  0.92380091    -0.59280
N93         N  0.79581894  0.75122878  0.03317522    -0.06840
N94         N  0.79110404  0.71734637  0.06037161    -0.61410
N95         N  0.77140435  0.74153465  0.99851353    -0.06440
N96         N  0.74894869  0.70129000  0.00166664    -0.59260
N97         N  0.87867893  0.77660005  0.98461951    -0.06120
N98         N  0.92295668  0.76576964  0.98469960    -0.61760
C99         C  0.92834952  0.74745594  0.94715718     0.95010
C100        C  0.76116746  0.68702458  0.04044950     0.94790
N101        N  0.80454306  0.88847222  0.08616720    -0.07350
N102        N  0.79610191  0.90404694  0.12357238    -0.59860
N103        N  0.89990322  0.86452195  0.03883875    -0.05470
N104        N  0.94442075  0.86154821  0.05153468    -0.61110
N105        N  0.88755600  0.90880725  0.03435560    -0.07380
N106        N  0.92324076  0.93678542  0.04367903    -0.60130
N107        N  0.81534299  0.84340844  0.08767465    -0.05110
N108        N  0.81452229  0.82761419  0.12567491    -0.61200
Mn109      Mn  0.84729674  0.80826347  0.03655338     1.18440
C110        C  0.80212507  0.86547894  0.14794521     0.97100
C111        C  0.95881509  0.90700521  0.05356349     0.97760
N112        N  0.70400544  0.80207593  0.93862940    -0.07400
N113        N  0.66627013  0.77506461  0.93686910    -0.63710
N114        N  0.77306769  0.86812086  0.88412375    -0.06200
N115        N  0.77607687  0.88529463  0.84665373    -0.64380
N116        N  0.78692892  0.82393804  0.88550553    -0.06900
N117        N  0.79893615  0.80985996  0.84864600    -0.63970
N118        N  0.69171308  0.84687549  0.93833805    -0.05800
N119        N  0.64595349  0.85135434  0.93663818    -0.64660
Mn120      Mn  0.77962121  0.78189916  0.94171769     1.10660
C121        C  0.63053868  0.80649488  0.93613337     0.98320
C122        C  0.79252319  0.84878509  0.82498795     0.98390
N123        N  0.82470114  0.96614823  0.96953297    -0.06910
N124        N  0.85904124  0.99419125  0.95937876    -0.62290
N125        N  0.71439163  0.94030175  0.98965794    -0.06230
N126        N  0.67619359  0.96639954  0.98982769    -0.59010
N127        N  0.74088643  0.94823511  0.02343144    -0.07540
N128        N  0.72099935  0.97884297  0.04738095    -0.61850
N129        N  0.79731740  0.95654489  0.93660100    -0.06530
N130        N  0.81216609  0.97745225  0.90374506    -0.59040
Mn131      Mn  0.81443538  0.92912802  0.02879732     1.20190
Mn132      Mn  0.74300257  0.90351580  0.93676241     1.10090
Cl133      Cl  0.79583210  0.85556468  0.98605687    -0.87010
C134        C  0.85047357  0.00117451  0.91818151     0.95320
C135        C  0.68035467  0.98949817  0.02659665     0.95120
N136        N  0.86536998  0.76564550  0.44825272    -0.07160
N137        N  0.89468441  0.75012106  0.42108138    -0.59280
N138        N  0.80332800  0.74653714  0.53204172    -0.06840
N139        N  0.79854628  0.71057018  0.55717820    -0.61410
N140        N  0.77989890  0.73876564  0.49655629    -0.06440
N141        N  0.75848727  0.69767854  0.49706059    -0.59260
N142        N  0.88781902  0.77183798  0.48449324    -0.06120
N143        N  0.93210753  0.76067020  0.48306888    -0.61760
C144        C  0.93611337  0.74726598  0.44362261     0.95010
C145        C  0.76998944  0.68052291  0.53512724     0.94790
N146        N  0.81506529  0.88309916  0.58840429    -0.07350
N147        N  0.80407354  0.89806723  0.62530004    -0.59860
N148        N  0.90992256  0.85710688  0.54129059    -0.05470
N149        N  0.95437358  0.85198908  0.55330672    -0.61110
N150        N  0.89937804  0.90193588  0.53729113    -0.07380
N151        N  0.93643088  0.92823287  0.54618981    -0.60130
N152        N  0.82404226  0.83751037  0.58939858    -0.05110
N153        N  0.81920203  0.82061569  0.62672773    -0.61200
Mn154      Mn  0.85616633  0.80245190  0.53761315     1.18440
C155        C  0.80632518  0.85858300  0.64864502     0.97100
C156        C  0.97068066  0.89667032  0.55540329     0.97760
N157        N  0.71437373  0.80349516  0.43941102    -0.07400
N158        N  0.67677044  0.77652824  0.43774504    -0.63710
N159        N  0.78394813  0.87072454  0.38697199    -0.06200
N160        N  0.78665457  0.88919708  0.35002563    -0.64380
N161        N  0.79763635  0.82658849  0.38708174    -0.06900
N162        N  0.80949400  0.81404540  0.34980062    -0.63970
N163        N  0.70216729  0.84825319  0.43980155    -0.05800
N164        N  0.65632951  0.85254205  0.43808770    -0.64660
Mn165      Mn  0.78917552  0.78229876  0.44172994     1.10660
C166        C  0.64072065  0.80752867  0.43704371     0.98320
C167        C  0.80286667  0.85367237  0.32696196     0.98390
N168        N  0.83839862  0.96406940  0.47397713    -0.06910
N169        N  0.87296317  0.99205050  0.46398409    -0.62290
N170        N  0.72698991  0.94030744  0.49356042    -0.06230
N171        N  0.69004792  0.96815137  0.49317684    -0.59010
N172        N  0.75383147  0.94772819  0.52725897    -0.07540
N173        N  0.73523799  0.97994360  0.55063067    -0.61850
N174        N  0.80998239  0.95638892  0.44133309    -0.06530
N175        N  0.82423557  0.97856118  0.40895008    -0.59040
Mn176      Mn  0.82698424  0.92540349  0.53233366     1.20190
Mn177      Mn  0.75460259  0.90436179  0.44019039     1.10090
Cl178      Cl  0.80639148  0.85349586  0.48818565    -0.87010
C179        C  0.86341975  0.00096093  0.42312937     0.95320
C180        C  0.69511768  0.99192318  0.52947003     0.95120
N181        N  0.57089179  0.46279137  0.13170180    -0.07160
N182        N  0.53642222  0.49068832  0.14210679    -0.59280
N183        N  0.68210876  0.44207559  0.11064024    -0.06840
N184        N  0.71679237  0.47291928  0.11180765    -0.61410
N185        N  0.65442520  0.44882268  0.07738716    -0.06440
N186        N  0.67013975  0.48347080  0.05530786    -0.59260
N187        N  0.59962628  0.45523437  0.16409801    -0.06120
N188        N  0.58562420  0.47744622  0.19678651    -0.61760
C189        C  0.54626770  0.49960364  0.18295184     0.95010
C190        C  0.70932371  0.49793099  0.07661427     0.94790
N191        N  0.69848056  0.30433500  0.16256550    -0.07350
N192        N  0.73703682  0.27852834  0.16530579    -0.59860
N193        N  0.62877287  0.36946073  0.21741239    -0.05470
N194        N  0.62666006  0.38726376  0.25493820    -0.61110
N195        N  0.61519412  0.32521658  0.21641300    -0.07380
N196        N  0.60352284  0.31199713  0.25348451    -0.60130
N197        N  0.70946485  0.34952673  0.16269216    -0.05110
N198        N  0.75510805  0.35539936  0.16580015    -0.61200
Mn199      Mn  0.65611272  0.40449266  0.16389861     1.18440
C200        C  0.77188546  0.31102406  0.16700886     0.97100
C201        C  0.61040553  0.35131143  0.27709572     0.97760
N202        N  0.59378800  0.38403355  0.01565288    -0.07400
N203        N  0.60308781  0.39953776  0.97866201    -0.63710
N204        N  0.49967648  0.35648260  0.06233007    -0.06200
N205        N  0.45632526  0.35074224  0.04711645    -0.64380
N206        N  0.50942856  0.40147899  0.06689415    -0.06900
N207        N  0.47280177  0.42718394  0.05514881    -0.63970
N208        N  0.58543231  0.33838002  0.01409299    -0.05800
N209        N  0.58890734  0.32195618  0.97628727    -0.64660
Mn210      Mn  0.58191288  0.42529723  0.07257756     1.10660
C211        C  0.60012876  0.36033818  0.95451125     0.98320
C212        C  0.43956769  0.39513046  0.04376134     0.98390
N213        N  0.54667152  0.26422388  0.15427759    -0.06910
N214        N  0.51700660  0.24804757  0.18085175    -0.62290
N215        N  0.60751740  0.24771162  0.06955809    -0.06230
N216        N  0.60911032  0.21122597  0.04424566    -0.59010
N217        N  0.63145616  0.23895530  0.10455069    -0.07540
N218        N  0.64982176  0.19636595  0.10346258    -0.61850
N219        N  0.52418002  0.27159962  0.11833785    -0.06530
N220        N  0.47988582  0.26096303  0.11952475    -0.59040
Mn221      Mn  0.62324332  0.28176867  0.16053562     1.20190
Mn222      Mn  0.55455856  0.30290883  0.06559609     1.10090
Cl223      Cl  0.60430935  0.35347600  0.11550124    -0.87010
C224        C  0.47524625  0.24618892  0.15834795     0.95320
C225        C  0.63607361  0.17965797  0.06551497     0.95120
N226        N  0.49666723  0.35401336  0.56192366    -0.07160
N227        N  0.45302252  0.34757535  0.54778995    -0.59280
N228        N  0.59134524  0.38360828  0.51577157    -0.06840
N229        N  0.60240248  0.39912202  0.47916983    -0.61410
N230        N  0.58282266  0.33796170  0.51378330    -0.06440
N231        N  0.58709519  0.32178619  0.47599656    -0.59260
N232        N  0.50577039  0.39912903  0.56668377    -0.06120
N233        N  0.46852246  0.42428185  0.55592325    -0.61760
C234        C  0.43571537  0.39175893  0.54462775     0.95010
C235        C  0.60003918  0.35998936  0.45482188     0.94790
N236        N  0.67725247  0.44250454  0.61160421    -0.07350
N237        N  0.71377079  0.47102333  0.61148301    -0.59860
N238        N  0.56509652  0.46197940  0.63252125    -0.05470
N239        N  0.53091573  0.49027402  0.64332303    -0.61110
N240        N  0.59420460  0.45450579  0.66470082    -0.07380
N241        N  0.58102341  0.47714414  0.69746007    -0.60130
N242        N  0.64975569  0.44928474  0.57829425    -0.05110
N243        N  0.66735811  0.48148928  0.55467607    -0.61200
Mn244      Mn  0.57757527  0.42467247  0.57288291     1.18440
C245        C  0.70761785  0.49436998  0.57518875     0.97100
C246        C  0.54199688  0.49984593  0.68398846     0.97760
N247        N  0.60645058  0.24688077  0.56934827    -0.07400
N248        N  0.61108971  0.21079111  0.54393469    -0.63710
N249        N  0.54290033  0.26220621  0.65321009    -0.06200
N250        N  0.51243816  0.24579636  0.67907766    -0.64380
N251        N  0.52132220  0.26921338  0.61683891    -0.06900
N252        N  0.47704583  0.25825033  0.61708388    -0.63970
N253        N  0.62987631  0.23912629  0.60476411    -0.05800
N254        N  0.65112884  0.19801515  0.60394138    -0.64660
Mn255      Mn  0.55217995  0.30131837  0.56484256     1.10660
C256        C  0.63959226  0.18084783  0.56577011     0.98320
C257        C  0.47127039  0.24328363  0.65554402     0.98390
N258        N  0.62277130  0.36842048  0.71728361    -0.06910
N259        N  0.62052296  0.38564843  0.75498057    -0.62290
N260        N  0.69427868  0.30445134  0.66368651    -0.06230
N261        N  0.73287879  0.27883076  0.66719420    -0.59010
N262        N  0.70501973  0.34968818  0.66345755    -0.07540
N263        N  0.75068005  0.35573439  0.66675856    -0.61850
N264        N  0.61047734  0.32378812  0.71606741    -0.06530
N265        N  0.60045837  0.30945752  0.75321063    -0.59040
Mn266      Mn  0.65095167  0.40423595  0.66444682     1.20190
Mn267      Mn  0.61948926  0.28105278  0.66049357     1.10090
Cl268      Cl  0.60040164  0.35273573  0.61549656    -0.87010
C269        C  0.60657990  0.34857839  0.77705726     0.95320
C270        C  0.76761686  0.31139064  0.66871200     0.95120
N271        N  0.20342977  0.10325323  0.29199633    -0.07160
N272        N  0.21486928  0.07131715  0.32099012    -0.59280
N273        N  0.22244474  0.16693897  0.20586455    -0.06840
N274        N  0.25786875  0.17180772  0.18200693    -0.61410
N275        N  0.23071615  0.19028083  0.24067227    -0.06440
N276        N  0.27164951  0.21158016  0.24112309    -0.59260
N277        N  0.19709257  0.08170819  0.25596965    -0.06120
N278        N  0.20396030  0.03625314  0.25931298    -0.61760
C279        C  0.21512614  0.02952125  0.29956663     0.95010
C280        C  0.28799552  0.20028187  0.20415634     0.94790
N281        N  0.08626528  0.15386487  0.14442785    -0.07350
N282        N  0.07088035  0.16279240  0.10599617    -0.59860
N283        N  0.11302121  0.05827812  0.19539095    -0.05470
N284        N  0.11747533  0.01608153  0.17851065    -0.61110
N285        N  0.06866360  0.06839933  0.19828121    -0.07380
N286        N  0.04248597  0.03313080  0.18405266    -0.60130
N287        N  0.13146723  0.14496869  0.14578724    -0.05110
N288        N  0.14743401  0.14694673  0.10860168    -0.61200
Mn289      Mn  0.16680672  0.11345810  0.20026670     1.18440
C290        C  0.10953080  0.15841544  0.08417503     0.97100
C291        C  0.07313166  0.00027668  0.17242085     0.97760
N292        N  0.16518150  0.25847500  0.28834390    -0.07400
N293        N  0.19067353  0.29713334  0.28459481    -0.63710
N294        N  0.10027757  0.18866926  0.34418074    -0.06200
N295        N  0.08232430  0.18564115  0.38055051    -0.64380
N296        N  0.14394916  0.17480157  0.34647361    -0.06900
N297        N  0.15672277  0.16257235  0.38473370    -0.63970
N298        N  0.12044505  0.26960922  0.28514504    -0.05800
N299        N  0.11489390  0.31530090  0.27956942    -0.64660
Mn300      Mn  0.18729682  0.18193604  0.29338060     1.10660
C301        C  0.15873302  0.33249427  0.27900642     0.98320
C302        C  0.11775796  0.16914940  0.40573540     0.98390
N303        N  0.00760428  0.12983036  0.25744524    -0.06910
N304        N  0.97989915  0.09518580  0.26827657    -0.62290
N305        N  0.02615569  0.24188462  0.23143903    -0.06230
N306        N  0.99356026  0.27502553  0.23012391    -0.59010
N307        N  0.01981720  0.21388907  0.19911993    -0.07540
N308        N  0.98381662  0.22801675  0.17524818    -0.61850
N309        N  0.01530258  0.15906020  0.28876551    -0.06530
N310        N  0.99365169  0.14519067  0.32116440    -0.59040
Mn311      Mn  0.04487631  0.14127382  0.19952076     1.20190
Mn312      Mn  0.06535876  0.21613351  0.28764243     1.10090
Cl313      Cl  0.11619086  0.16354312  0.24498518    -0.87010
C314        C  0.97138373  0.10553213  0.30820257     0.95320
C315        C  0.96779386  0.26650693  0.19437594     0.95120
N316        N  0.19794208  0.09927610  0.79079057    -0.07160
N317        N  0.21077935  0.06582488  0.81797465    -0.59280
N318        N  0.21855215  0.16757047  0.70725451    -0.06840
N319        N  0.25488418  0.17252770  0.68443915    -0.61410
N320        N  0.22677574  0.18845678  0.74322340    -0.06440
N321        N  0.26847124  0.20839371  0.74538322    -0.59260
N322        N  0.19213135  0.08020058  0.75374965    -0.06120
N323        N  0.20043895  0.03494431  0.75458007    -0.61760
C324        C  0.21226602  0.02572330  0.79427303     0.95010
C325        C  0.28575363  0.19832514  0.70850518     0.94790
N326        N  0.08176946  0.15567454  0.64415205    -0.07350
N327        N  0.06647879  0.16464307  0.60571994    -0.59860
N328        N  0.10994073  0.05942880  0.69342515    -0.05470
N329        N  0.11662510  0.01656795  0.67896584    -0.61110
N330        N  0.06518970  0.06811089  0.69531885    -0.07380
N331        N  0.04063729  0.03119579  0.68205939    -0.60130
N332        N  0.12721468  0.14823042  0.64577028    -0.05110
N333        N  0.14332342  0.15162975  0.60873589    -0.61200
Mn334      Mn  0.16262379  0.11467379  0.69943285     1.18440
C335        C  0.10534828  0.16235561  0.58392718     0.97100
C336        C  0.07315366  0.99890589  0.67285952     0.97760
N337        N  0.16058711  0.25338798  0.79202500    -0.07400
N338        N  0.18729142  0.29116932  0.78966716    -0.63710
N339        N  0.09455589  0.18350739  0.84487152    -0.06200
N340        N  0.07691894  0.18293224  0.88145111    -0.64380
N341        N  0.13797681  0.16867075  0.84735694    -0.06900
N342        N  0.15092961  0.15801690  0.88600464    -0.63970
N343        N  0.11617707  0.26571407  0.78824235    -0.05800
N344        N  0.11205101  0.31176515  0.78372216    -0.64660
Mn345      Mn  0.18206156  0.17741316  0.79491519     1.10660
C346        C  0.15666139  0.32746342  0.78464701     0.98320
C347        C  0.11229308  0.16700514  0.90679005     0.98390
N348        N  0.00235858  0.12711376  0.75592825    -0.06910
N349        N  0.97346683  0.09293498  0.76571102    -0.62290
N350        N  0.02146467  0.24021767  0.73322436    -0.06230
N351        N  0.98904482  0.27344294  0.73324666    -0.59010
N352        N  0.01458623  0.21339641  0.70015976    -0.07540
N353        N  0.97841340  0.22863382  0.67697539    -0.61850
N354        N  0.00997044  0.15559443  0.78779416    -0.06530
N355        N  0.98706808  0.14172277  0.81939934    -0.59040
Mn356      Mn  0.04004465  0.14066775  0.69844622     1.20190
Mn357      Mn  0.06035670  0.21258026  0.78871624     1.10090
Cl358      Cl  0.11131507  0.16174042  0.74516024    -0.87010
C359        C  0.96418214  0.10273253  0.80562303     0.95320
C360        C  0.96302658  0.26652493  0.69745818     0.95120
C361        C  0.14666289  0.14612043  0.52039548    -0.21350
C362        C  0.10635761  0.16337520  0.53808264    -0.07920
C363        C  0.06901660  0.18012632  0.51167909     0.12950
C364        C  0.07380456  0.18050727  0.46881191    -0.21400
C365        C  0.11472260  0.16451933  0.45123173    -0.07920
C366        C  0.15134881  0.14615588  0.47758908     0.12940
C367        C  0.19550959  0.12617472  0.46142792    -0.24750
H368        H  0.17505595  0.13228273  0.54022782     0.14230
H369        H  0.04531127  0.19408357  0.44893500     0.14260
C370        C  0.02429877  0.19844181  0.52801168    -0.24700
H371        H  0.21908767  0.11147432  0.48654859     0.04470
H372        H  0.21514584  0.15429400  0.44631680     0.07700
H373        H  0.18680380  0.09712593  0.43916279     0.07700
H374        H  0.03199938  0.22811655  0.54985357     0.07680
H375        H  0.00620268  0.16970688  0.54378469     0.07680
H376        H  0.99981008  0.21164633  0.50287842     0.04450
C377        C  0.12834331  0.12534520  0.97277172    -0.21350
C378        C  0.11057712  0.16522429  0.95209925    -0.07920
C379        C  0.09216448  0.20288090  0.97501579     0.12950
C380        C  0.09138063  0.19922320  0.01810034    -0.21400
C381        C  0.10943650  0.15948366  0.03875781    -0.07920
C382        C  0.12790689  0.12187632  0.01586860     0.12940
C383        C  0.14592742  0.07742992  0.03646590    -0.24750
H384        H  0.14225812  0.09659336  0.95502265     0.14230
H385        H  0.07765809  0.22801579  0.03590876     0.14260
C386        C  0.07528693  0.24787992  0.95460124    -0.24700
H387        H  0.15622421  0.05065073  0.01357090     0.04470
H388        H  0.11832458  0.06177712  0.05459610     0.07700
H389        H  0.17711717  0.08533795  0.05717529     0.07700
H390        H  0.04409613  0.24077602  0.93365383     0.07680
H391        H  0.10346874  0.26322386  0.93680144     0.07680
H392        H  0.06524923  0.27464210  0.97760778     0.04450
C393        C  0.84777527  0.30548639  0.64418405    -0.21350
C394        C  0.81772878  0.30081142  0.67648459    -0.07920
C395        C  0.83630325  0.28910712  0.71635927     0.12950
C396        C  0.88451795  0.28115375  0.72286941    -0.21400
C397        C  0.91449426  0.28379944  0.69021873    -0.07920
C398        C  0.89591178  0.29637686  0.65042523     0.12940
C399        C  0.92683024  0.30071558  0.61467040    -0.24750
H400        H  0.83338038  0.31554524  0.61385981     0.14230
H401        H  0.89854193  0.27086769  0.75325099     0.14260
C402        C  0.80521054  0.28507573  0.75203057    -0.24700
H403        H  0.90696302  0.31274839  0.58622475     0.04470
H404        H  0.94263899  0.26606719  0.60776869     0.07700
H405        H  0.95497570  0.32673018  0.62242143     0.07700
H406        H  0.77873120  0.25706911  0.74540652     0.07680
H407        H  0.78717825  0.31915845  0.75677875     0.07680
H408        H  0.82535524  0.27598318  0.78120448     0.04450
C409        C  0.41722984  0.22546566  0.71153904    -0.21350
C410        C  0.42424122  0.22954004  0.66921782    -0.07920
C411        C  0.38525752  0.22221293  0.64036018     0.12950
C412        C  0.34124731  0.21232263  0.65472402    -0.21400
C413        C  0.33394019  0.20962417  0.69683927    -0.07920
C414        C  0.37268400  0.21569195  0.72576534     0.12940
C415        C  0.36793377  0.21081375  0.77155818    -0.24750
H416        H  0.44658240  0.23060873  0.73367107     0.14230
H417        H  0.31182566  0.20723459  0.63260007     0.14260
C418        C  0.38859473  0.22422029  0.59403389    -0.24700
H419        H  0.40211845  0.21436969  0.78925094     0.04470
H420        H  0.35351534  0.17552919  0.77830422     0.07700
H421        H  0.34463965  0.23879063  0.78265939     0.07700
H422        H  0.41553522  0.19909861  0.58423363     0.07680
H423        H  0.39680388  0.26065278  0.58445621     0.07680
H424        H  0.35522297  0.21436586  0.57702831     0.04450
C425        C  0.62366487  0.32004034  0.89128330    -0.21350
C426        C  0.60285614  0.35940083  0.90910837    -0.07920
C427        C  0.58205916  0.39447199  0.88317624     0.12950
C428        C  0.58346414  0.38956606  0.84014386    -0.21400
C429        C  0.60413991  0.35011355  0.82239498    -0.07920
C430        C  0.62485150  0.31503402  0.84827881     0.12940
C431        C  0.64980935  0.27321885  0.83097917    -0.24750
H432        H  0.63933416  0.29311456  0.91121330     0.14230
H433        H  0.56782779  0.41644778  0.82013309     0.14260
C434        C  0.55662219  0.43602913  0.90036394    -0.24700
H435        H  0.66603999  0.25075221  0.85582383     0.04470
H436        H  0.67798447  0.28551981  0.81156105     0.07700
H437        H  0.62476775  0.25097153  0.81215085     0.07700
H438        H  0.58133707  0.45841272  0.91940161     0.07680
H439        H  0.52831780  0.42344083  0.91950885     0.07680
H440        H  0.54043359  0.45844698  0.87545397     0.04450
C441        C  0.64142119  0.37777712  0.34654062    -0.21350
C442        C  0.60655183  0.35365201  0.32245967    -0.07920
C443        C  0.56896359  0.33306602  0.34208677     0.12950
C444        C  0.56782791  0.33613078  0.38527823    -0.21400
C445        C  0.60297612  0.35970757  0.40937703    -0.07920
C446        C  0.64024520  0.38083983  0.38977996     0.12940
C447        C  0.67967766  0.40489855  0.41443036    -0.24750
H448        H  0.67033126  0.39354743  0.33147885     0.14230
H449        H  0.53898845  0.32029770  0.40038970     0.14260
C450        C  0.52924708  0.30922924  0.31763509    -0.24700
H451        H  0.70692008  0.41781897  0.39430823     0.04470
H452        H  0.69637034  0.37973936  0.43689253     0.07700
H453        H  0.66619613  0.43565866  0.43131781     0.07700
H454        H  0.54223159  0.27764838  0.30158660     0.07680
H455        H  0.51323529  0.33411522  0.29456739     0.07680
H456        H  0.50152638  0.29747137  0.33776710     0.04450
C457        C  0.89251456  0.29513681  0.21941558    -0.21350
C458        C  0.91920808  0.28370650  0.18575765    -0.07920
C459        C  0.89702733  0.28276228  0.14542938     0.12950
C460        C  0.84870166  0.29123080  0.14018752    -0.21400
C461        C  0.82205606  0.30046847  0.17410537    -0.07920
C462        C  0.84425826  0.30344251  0.21402521     0.12940
C463        C  0.81677912  0.31456017  0.25105867    -0.24750
H464        H  0.90900103  0.29571842  0.25033888     0.14230
H465        H  0.83156685  0.29057508  0.10949321     0.14260
C466        C  0.92401981  0.27370424  0.10765806    -0.24700
H467        H  0.83930340  0.31493575  0.28012407     0.04470
H468        H  0.78916313  0.28755536  0.25400413     0.07700
H469        H  0.80025728  0.34980081  0.24739235     0.07700
H470        H  0.93721743  0.23697404  0.10754329     0.07680
H471        H  0.95372919  0.29875067  0.10713171     0.07680
H472        H  0.90185855  0.27847668  0.07871969     0.04450
C473        C  0.37284208  0.21103077  0.22291273    -0.21350
C474        C  0.33578006  0.21163036  0.19242229    -0.07920
C475        C  0.34503812  0.22292418  0.15149947     0.12950
C476        C  0.39086797  0.23316707  0.14208789    -0.21400
C477        C  0.42842032  0.23265275  0.17229886    -0.07920
C478        C  0.41912101  0.22106871  0.21337174     0.12940
C479        C  0.45726680  0.21942147  0.24724251    -0.24750
H480        H  0.36560075  0.20212355  0.25436354     0.14230
H481        H  0.39704045  0.24200445  0.11041169     0.14260
C482        C  0.30660785  0.22601816  0.11775117    -0.24700
H483        H  0.44362164  0.20958502  0.27736422     0.04470
H484        H  0.47381738  0.25464374  0.25099480     0.07700
H485        H  0.48383604  0.19281146  0.23954881     0.07700
H486        H  0.27948146  0.25130882  0.12693169     0.07680
H487        H  0.29068206  0.19080649  0.11187356     0.07680
H488        H  0.31983501  0.23838106  0.08817229     0.04450
C489        C  0.01775150  0.89320841  0.62066522    -0.21350
C490        C  0.01270183  0.91071337  0.58017912    -0.07920
C491        C  0.03803457  0.95092657  0.56936306     0.12950
C492        C  0.06306524  0.97613212  0.60043598    -0.21400
C493        C  0.06202864  0.96253504  0.64184086    -0.07920
C494        C  0.04137664  0.91958076  0.65205319     0.12940
C495        C  0.04163961  0.90346412  0.69621077    -0.24750
H496        H  0.99830451  0.86219768  0.62883242     0.14230
H497        H  0.07958353  0.00913252  0.59281141     0.14260
C498        C  0.03644798  0.96989054  0.52597599    -0.24700
H499        H  0.02373649  0.86897769  0.69883469     0.04470
H500        H  0.02347480  0.92974319  0.71505969     0.07700
H501        H  0.07825030  0.89957897  0.70887535     0.07700
H502        H  0.02026656  0.00547771  0.52534233     0.07680
H503        H  0.01634939  0.94679874  0.50363647     0.07680
H504        H  0.07252590  0.97270582  0.51558819     0.04450
C505        C  0.88192431  0.02324906  0.35203496    -0.21350
C506        C  0.89317786  0.02727586  0.39490497    -0.07920
C507        C  0.93137857  0.05598514  0.40860676     0.12950
C508        C  0.95635890  0.08017137  0.37929460    -0.21400
C509        C  0.94472721  0.07633329  0.33653808    -0.07920
C510        C  0.90708347  0.04716478  0.32280031     0.12940
C511        C  0.89208891  0.04210596  0.27763729    -0.24750
H512        H  0.85296076  0.00117194  0.34098006     0.14230
H513        H  0.98539318  0.10239454  0.39000901     0.14260
C514        C  0.94587869  0.06208396  0.45376910    -0.24700
H515        H  0.86069238  0.01936640  0.27271037     0.04470
H516        H  0.92051230  0.02566792  0.26077347     0.07700
H517        H  0.88344726  0.07727322  0.26439460     0.07700
H518        H  0.95680979  0.02761770  0.46715423     0.07680
H519        H  0.91637710  0.07665638  0.47048866     0.07680
H520        H  0.97584044  0.08672014  0.45866575     0.04450
C521        C  0.75065082  0.59814304  0.51552249    -0.21350
C522        C  0.75937880  0.63147973  0.54728429    -0.07920
C523        C  0.75716846  0.61711256  0.58887656     0.12950
C524        C  0.74362290  0.57064092  0.59727984    -0.21400
C525        C  0.73196792  0.53841885  0.56524408    -0.07920
C526        C  0.73706542  0.55192306  0.52388644     0.12940
C527        C  0.72844873  0.51780146  0.48833142    -0.24750
H528        H  0.75377346  0.60846087  0.48366798     0.14230
H529        H  0.73956363  0.56026261  0.62898932     0.14260
C530        C  0.76670197  0.65085776  0.62446048    -0.24700
H531        H  0.73783764  0.53333273  0.45856679     0.04470
H532        H  0.69102803  0.50797825  0.48482706     0.07700
H533        H  0.74997036  0.48564667  0.49374580     0.07700
H534        H  0.74301117  0.68173391  0.62110568     0.07680
H535        H  0.80357814  0.66279847  0.62530663     0.07680
H536        H  0.76100372  0.63410554  0.65462782     0.04450
C537        C  0.66617117  0.06959416  0.50527937    -0.21350
C538        C  0.67151696  0.03683481  0.53754252    -0.07920
C539        C  0.66196796  0.05060970  0.57801646     0.12950
C540        C  0.65038678  0.09762766  0.58575680    -0.21400
C541        C  0.64813061  0.13129193  0.55408336    -0.07920
C542        C  0.65472347  0.11684523  0.51305222     0.12940
C543        C  0.65244123  0.15134445  0.47783613    -0.24750
H544        H  0.67386447  0.05891719  0.47423379     0.14230
H545        H  0.64377558  0.10830970  0.61704392     0.14260
C546        C  0.66388061  0.01586385  0.61310327    -0.24700
H547        H  0.66093316  0.13429864  0.44826752     0.04470
H548        H  0.67785816  0.18034799  0.48441760     0.07700
H549        H  0.61668739  0.16610455  0.47353121     0.07700
H550        H  0.69996188  0.00260205  0.61919393     0.07680
H551        H  0.64016430  0.98578626  0.60518457     0.07680
H552        H  0.65277193  0.03217288  0.64217356     0.04450
C553        C  0.83203461  0.87672331  0.76384100    -0.21350
C554        C  0.79635378  0.84994954  0.77991328    -0.07920
C555        C  0.76315130  0.82715123  0.75276195     0.12950
C556        C  0.76687514  0.83097965  0.70990685    -0.21400
C557        C  0.80251534  0.85776829  0.69378391    -0.07920
C558        C  0.83582588  0.88048277  0.72096670     0.12940
C559        C  0.87623535  0.90723812  0.70480328    -0.24750
H560        H  0.85716948  0.89438364  0.78490663     0.14230
H561        H  0.74174584  0.81328267  0.68887495     0.14260
C562        C  0.72316368  0.79982932  0.76899569    -0.24700
H563        H  0.90017841  0.92095125  0.73025173     0.04470
H564        H  0.86307849  0.93759996  0.68610410     0.07700
H565        H  0.89672805  0.88359087  0.68529730     0.07700
H566        H  0.70200858  0.82338391  0.78802277     0.07680
H567        H  0.73683512  0.77013078  0.78826405     0.07680
H568        H  0.69985130  0.78503983  0.74356275     0.04450
C569        C  0.82365040  0.82563479  0.21417941    -0.21350
C570        C  0.80301204  0.86488819  0.19393080    -0.07920
C571        C  0.78476278  0.90147128  0.21804905     0.12950
C572        C  0.78641689  0.89692079  0.26124597    -0.21400
C573        C  0.80574178  0.85690141  0.28135643    -0.07920
C574        C  0.82551656  0.82116221  0.25729272     0.12940
C575        C  0.84913759  0.77832714  0.27631934    -0.24750
H576        H  0.83866312  0.79782824  0.19612452     0.14230
H577        H  0.77162104  0.92479876  0.27938377     0.14260
C578        C  0.76268964  0.94498502  0.19888825    -0.24700
H579        H  0.86488470  0.75567245  0.25278590     0.04470
H580        H  0.82334818  0.75640761  0.29171013     0.07700
H581        H  0.87763051  0.78945631  0.29895913     0.07700
H582        H  0.73307034  0.93486512  0.17703811     0.07680
H583        H  0.78903021  0.96506348  0.18243357     0.07680
H584        H  0.74889960  0.96896298  0.22249482     0.04450
C585        C  0.01403753  0.89982841  0.11460948    -0.21350
C586        C  0.00109522  0.92316431  0.07749967    -0.07920
C587        C  0.02209648  0.96678087  0.06886561     0.12950
C588        C  0.05115135  0.98843378  0.09951794    -0.21400
C589        C  0.05884352  0.96801465  0.13855686    -0.07920
C590        C  0.04221002  0.92236366  0.14567999     0.12940
C591        C  0.05207101  0.89882482  0.18669163    -0.24750
H592        H  0.99840863  0.86611011  0.12104957     0.14230
H593        H  0.06402179  0.02369103  0.09452692     0.14260
C594        C  0.01244220  0.99175406  0.02827839    -0.24700
H595        H  0.03627842  0.86310013  0.18729902     0.04470
H596        H  0.03771504  0.92031193  0.21170546     0.07700
H597        H  0.09037518  0.89524049  0.19261726     0.07700
H598        H  0.97552987  0.00334628  0.02482652     0.07680
H599        H  0.02010964  0.96778076  0.00236396     0.07680
H600        H  0.03449740  0.02373156  0.02604089     0.04450
C601        C  0.93721940  0.08721291  0.87553113    -0.21350
C602        C  0.93537785  0.07447620  0.83329432    -0.07920
C603        C  0.90606544  0.03672801  0.81966859     0.12950
C604        C  0.87934597  0.01352056  0.84835824    -0.21400
C605        C  0.88114866  0.02660448  0.89044095    -0.07920
C606        C  0.91071769  0.06394168  0.90414751     0.12940
C607        C  0.91369261  0.08060184  0.94848435    -0.24750
H608        H  0.95959483  0.11591779  0.88658125     0.14230
H609        H  0.85687082  0.98467114  0.83770892     0.14260
C610        C  0.90198286  0.02089370  0.77517261    -0.24700
H611        H  0.93690485  0.11176084  0.95315218     0.04470
H612        H  0.92814988  0.05221299  0.96884065     0.07700
H613        H  0.87845396  0.09080250  0.95787045     0.07700
H614        H  0.93631534  0.00798100  0.76572073     0.07680
H615        H  0.88986416  0.05061598  0.75517836     0.07680
H616        H  0.87642934  0.99170543  0.77017032     0.04450
C617        C  0.69250591  0.58254299  0.07362892    -0.21350
C618        C  0.72595894  0.54651202  0.07220745    -0.07920
C619        C  0.77242177  0.55762642  0.06437248     0.12950
C620        C  0.78394182  0.60474139  0.05633215    -0.21400
C621        C  0.74970977  0.64020429  0.05571097    -0.07920
C622        C  0.70381221  0.62929198  0.06527742     0.12940
C623        C  0.66678008  0.66690985  0.06633313    -0.24750
H624        H  0.65693899  0.57380083  0.08037794     0.14230
H625        H  0.81917102  0.61361159  0.04867199     0.14260
C626        C  0.80893938  0.51970155  0.06264501    -0.24700
H627        H  0.63281746  0.65231667  0.07503707     0.04470
H628        H  0.66134302  0.68332159  0.03544085     0.07700
H629        H  0.67788181  0.69444392  0.08936386     0.07700
H630        H  0.79826514  0.49354141  0.03825958     0.07680
H631        H  0.81295445  0.50162136  0.09290460     0.07680
H632        H  0.84341596  0.53441461  0.05550800     0.04450
C633        C  0.65042993  0.06689368  0.00334990    -0.21350
C634        C  0.65626094  0.03390839  0.03532934    -0.07920
C635        C  0.64965047  0.04804835  0.07637174     0.12950
C636        C  0.64191233  0.09573833  0.08490947    -0.21400
C637        C  0.64032468  0.12958790  0.05343481    -0.07920
C638        C  0.64260627  0.11473523  0.01186347     0.12940
C639        C  0.63976094  0.14921280  0.97660741    -0.24750
H640        H  0.65563234  0.05592188  0.97186009     0.14230
H641        H  0.63802489  0.10675813  0.11660188     0.14260
C642        C  0.65112668  0.01305064  0.11129338    -0.24700
H643        H  0.64489981  0.13159929  0.94651761     0.04470
H644        H  0.66721738  0.17659350  0.98157258     0.07700
H645        H  0.60483240  0.16611142  0.97432170     0.07700
H646        H  0.68646836  0.99754957  0.11615231     0.07680
H647        H  0.62536935  0.98451361  0.10407523     0.07680
H648        H  0.64233667  0.02986924  0.14087695     0.04450
C649        C  0.33566624  0.46028994  0.99726651    -0.21350
C650        C  0.34510203  0.45684221  0.95535328    -0.07920
C651        C  0.37904158  0.42474905  0.94277991     0.12950
C652        C  0.40562496  0.39963365  0.97286931    -0.21400
C653        C  0.40029536  0.40786310  0.01503529    -0.07920
C654        C  0.36384557  0.43691705  0.02748377     0.12940
C655        C  0.35656262  0.44526213  0.07256567    -0.24750
H656        H  0.30978503  0.48538734  0.00674900     0.14230
H657        H  0.43391538  0.37728643  0.96358316     0.14260
C658        C  0.38906973  0.41923797  0.89789350    -0.24700
H659        H  0.32631408  0.46884730  0.07695560     0.04470
H660        H  0.38808252  0.46192778  0.08790515     0.07700
H661        H  0.34991421  0.41111065  0.08772011     0.07700
H662        H  0.40157082  0.45311224  0.88560344     0.07680
H663        H  0.35675604  0.40825217  0.87984353     0.07680
H664        H  0.41635828  0.39219375  0.89342310     0.04450
C665        C  0.50728042  0.57554433  0.77452024    -0.21350
C666        C  0.45880871  0.57029057  0.77182091    -0.07920
C667        C  0.43716096  0.54403460  0.73877880     0.12950
C668        C  0.46483805  0.52258713  0.70954475    -0.21400
C669        C  0.51361726  0.52721564  0.71250745    -0.07920
C670        C  0.53503092  0.55458246  0.74526708     0.12940
C671        C  0.58695516  0.56365502  0.74881994    -0.24750
H672        H  0.52334960  0.59735423  0.79898858     0.14230
H673        H  0.44842782  0.50143253  0.68481508     0.14260
C674        C  0.38484824  0.53841842  0.73460431    -0.24700
H675        H  0.59667169  0.58957438  0.77368026     0.04470
H676        H  0.59841780  0.57810330  0.71930933     0.07700
H677        H  0.60616886  0.53064882  0.75648571     0.07700
H678        H  0.36794485  0.57339648  0.73035091     0.07680
H679        H  0.37248317  0.52175642  0.76288178     0.07680
H680        H  0.37365273  0.51591713  0.70765974     0.04450
C681        C  0.50127572  0.79487751  0.95250768    -0.21350
C682        C  0.48423007  0.77914703  0.91337695    -0.07920
C683        C  0.51603957  0.77065739  0.88229536     0.12950
C684        C  0.56390291  0.77833876  0.89121448    -0.21400
C685        C  0.58069611  0.79450883  0.93012122    -0.07920
C686        C  0.54915013  0.80340962  0.96104123     0.12940
C687        C  0.56619051  0.82090758  0.00322568    -0.24750
H688        H  0.47703042  0.80008458  0.97657828     0.14230
H689        H  0.58841139  0.77228312  0.86749684     0.14260
C690        C  0.50018482  0.75181695  0.84016201    -0.24700
H691        H  0.53705817  0.82512832  0.02404346     0.04470
H692        H  0.58346135  0.85568618  0.00058129     0.07700
H693        H  0.59157105  0.79538673  0.01752199     0.07700
H694        H  0.47655117  0.77758304  0.82398424     0.07680
H695        H  0.48173502  0.71771200  0.84325404     0.07680
H696        H  0.53003692  0.74562403  0.82049864     0.04450
C697        C  0.05699194  0.71180254  0.95038456    -0.21350
C698        C  0.06449949  0.70672590  0.90849556    -0.07920
C699        C  0.02626629  0.71219431  0.87902396     0.12950
C700        C  0.98194772  0.72415542  0.89247984    -0.21400
C701        C  0.97484023  0.73112526  0.93449929    -0.07920
C702        C  0.01321160  0.72409095  0.96397442     0.12940
C703        C  0.00943133  0.72896709  0.01012266    -0.24750
H704        H  0.08612192  0.70706014  0.97281899     0.14230
H705        H  0.95294166  0.72895333  0.86996806     0.14260
C706        C  0.03131343  0.70437141  0.83349725    -0.24700
H707        H  0.04221831  0.71871322  0.02774283     0.04470
H708        H  0.98137762  0.70562423  0.02042122     0.07700
H709        H  0.00257771  0.76625192  0.01844904     0.07700
H710        H  0.04536998  0.66850161  0.82814779     0.07680
H711        H  0.05500076  0.73126668  0.82149697     0.07680
H712        H  0.99729088  0.70731641  0.81548069     0.04450
C713        C  0.22088159  0.44536686  0.79670996    -0.21350
C714        C  0.18457870  0.47721384  0.78662456    -0.07920
C715        C  0.14112245  0.45973362  0.77099246     0.12950
C716        C  0.13402691  0.41063168  0.76846087    -0.21400
C717        C  0.16924272  0.37844589  0.78179385    -0.07920
C718        C  0.21399092  0.39635124  0.79461491     0.12940
C719        C  0.25410441  0.36475563  0.80854858    -0.24750
H720        H  0.25411651  0.45910429  0.80917001     0.14230
H721        H  0.09996279  0.39744870  0.75776100     0.14260
C722        C  0.10142982  0.49277942  0.75960394    -0.24700
H723        H  0.28603039  0.38522810  0.81797972     0.04470
H724        H  0.26297362  0.34093898  0.78287595     0.07700
H725        H  0.24468646  0.34379587  0.83564294     0.07700
H726        H  0.11172284  0.51689610  0.73487975     0.07680
H727        H  0.09269023  0.51391162  0.78703774     0.07680
H728        H  0.06956383  0.47339753  0.74812551     0.04450
C729        C  0.23921331  0.94709215  0.77452700    -0.21350
C730        C  0.22378344  0.97619243  0.80638350    -0.07920
C731        C  0.21385643  0.95520909  0.84434520     0.12950
C732        C  0.21929574  0.90578787  0.84905727    -0.21400
C733        C  0.23356662  0.87726785  0.81637783    -0.07920
C734        C  0.24345616  0.89833855  0.77874039     0.12940
C735        C  0.25773369  0.86924772  0.74239774    -0.24750
H736        H  0.24713455  0.96250283  0.74523496     0.14230
H737        H  0.21250686  0.88941973  0.87821329     0.14260
C738        C  0.19656695  0.98431435  0.87920653    -0.24700
H739        H  0.26230738  0.89125091  0.71470589     0.04470
H740        H  0.23043004  0.84248652  0.73413947     0.07700
H741        H  0.29138207  0.85121079  0.75019689     0.07700
H742        H  0.16333442  0.00196088  0.86903626     0.07680
H743        H  0.22302487  0.01137599  0.88887511     0.07680
H744        H  0.19005785  0.96228350  0.90647900     0.04450
C745        C  0.32576788  0.68077949  0.63607050    -0.21350
C746        C  0.29067390  0.65498634  0.65446414    -0.07920
C747        C  0.26035423  0.62625333  0.62917021     0.12950
C748        C  0.26472444  0.62580153  0.58625599    -0.21400
C749        C  0.29884007  0.65281453  0.56779927    -0.07920
C750        C  0.33031472  0.68008544  0.59321597     0.12940
C751        C  0.36775716  0.70984452  0.57555764    -0.24750
H752        H  0.34936130  0.70259922  0.65524734     0.14230
H753        H  0.24125177  0.60399037  0.56694098     0.14260
C754        C  0.22399958  0.59519171  0.64692045    -0.24700
H755        H  0.38751840  0.73071113  0.59986053     0.04470
H756        H  0.35174032  0.73494282  0.55270792     0.07700
H757        H  0.39318685  0.68692587  0.56050441     0.07700
H758        H  0.19715775  0.61712582  0.66110389     0.07680
H759        H  0.24082340  0.57139215  0.67046339     0.07680
H760        H  0.20572798  0.57284471  0.62279055     0.04450
C761        C  0.27125041  0.63403969  0.13405138    -0.21350
C762        C  0.29509219  0.67139325  0.15441159    -0.07920
C763        C  0.31835369  0.70504133  0.13083396     0.12950
C764        C  0.31700105  0.70031404  0.08757278    -0.21400
C765        C  0.29260026  0.66327808  0.06724389    -0.07920
C766        C  0.27001339  0.62923566  0.09088565     0.12940
C767        C  0.24607406  0.58670213  0.07114044    -0.24750
H768        H  0.25382485  0.60808725  0.15215026     0.14230
H769        H  0.33443598  0.72617672  0.06938736     0.14260
C770        C  0.34307177  0.74701974  0.15071005    -0.24700
H771        H  0.23334230  0.56219485  0.09458785     0.04470
H772        H  0.27092452  0.56696519  0.05248435     0.07700
H773        H  0.21537359  0.59780929  0.05116703     0.07700
H774        H  0.37318016  0.73513977  0.17105233     0.07680
H775        H  0.31845728  0.76747210  0.16904306     0.07680
H776        H  0.35677997  0.77104601  0.12735825     0.04450
C777        C  0.36254546  0.41598322  0.44800180    -0.21350
C778        C  0.34319274  0.45887018  0.45967248    -0.07920
C779        C  0.34417402  0.47206487  0.50181659     0.12950
C780        C  0.36962886  0.44461433  0.53082173    -0.21400
C781        C  0.39433857  0.40495385  0.51842377    -0.07920
C782        C  0.38811197  0.38840231  0.47710977     0.12940
C783        C  0.41188478  0.34446392  0.46254521    -0.24750
H784        H  0.36112373  0.40618747  0.41558167     0.14230
H785        H  0.37426308  0.45684635  0.56256677     0.14260
C786        C  0.32208369  0.51732071  0.51576039    -0.24700
H787        H  0.40263743  0.33690017  0.42941185     0.04470
H788        H  0.40087799  0.31372826  0.48066757     0.07700
H789        H  0.45038197  0.34863638  0.46623148     0.07700
H790        H  0.28406987  0.51678915  0.50713497     0.07680
H791        H  0.33825659  0.54798692  0.50101136     0.07680
H792        H  0.32663950  0.52230106  0.54977382     0.04450
C793        C  0.44531234  0.56346888  0.23114153    -0.21350
C794        C  0.46595658  0.57457467  0.27034659    -0.07920
C795        C  0.51266442  0.56203179  0.28022244     0.12950
C796        C  0.53772661  0.53849143  0.25057367    -0.21400
C797        C  0.51726837  0.52681203  0.21119110    -0.07920
C798        C  0.47009675  0.53924934  0.20150427     0.12940
C799        C  0.44517904  0.52665917  0.16068505    -0.24750
H800        H  0.40938621  0.57373178  0.22376740     0.14230
H801        H  0.57384280  0.52936032  0.25837601     0.14260
C802        C  0.53668056  0.57501622  0.32133332    -0.24700
H803        H  0.40814760  0.53830248  0.15916533     0.04470
H804        H  0.44541145  0.48781731  0.15612963     0.07700
H805        H  0.46246062  0.54413613  0.13514287     0.07700
H806        H  0.51881561  0.55767645  0.34660505     0.07680
H807        H  0.53575207  0.61385913  0.32579807     0.07680
H808        H  0.57380611  0.56367656  0.32346675     0.04450
C809        C  0.52576699  0.73959784  0.43714590    -0.21350
C810        C  0.49333868  0.77447859  0.42418703    -0.07920
C811        C  0.50945314  0.82049300  0.41699126     0.12950
C812        C  0.55755243  0.83014510  0.42219783    -0.21400
C813        C  0.59026451  0.79477723  0.43370614    -0.07920
C814        C  0.57381986  0.74882803  0.44167006     0.12940
C815        C  0.60610308  0.70905653  0.45508368    -0.24750
H816        H  0.51363554  0.70410228  0.44251798     0.14230
H817        H  0.56967434  0.86553222  0.41641453     0.14260
C818        C  0.47615271  0.85964991  0.40453246    -0.24700
H819        H  0.58663003  0.67633538  0.46157001     0.04470
H820        H  0.62676624  0.71911492  0.48382694     0.07700
H821        H  0.62975890  0.70050229  0.43021935     0.07700
H822        H  0.44952107  0.86346802  0.42782440     0.07680
H823        H  0.45861881  0.85184171  0.37384967     0.07680
H824        H  0.49446824  0.89396283  0.40230603     0.04450
C825        C  0.00640856  0.69840792  0.45304683    -0.21350
C826        C  0.98123406  0.73162334  0.42894864    -0.07920
C827        C  0.00275667  0.75419145  0.39652406     0.12950
C828        C  0.04912041  0.74265647  0.38885477    -0.21400
C829        C  0.07476414  0.70938593  0.41310086    -0.07920
C830        C  0.05265903  0.68671866  0.44564396     0.12940
C831        C  0.07680496  0.65017351  0.47293635    -0.24750
H832        H  0.98975985  0.68194760  0.47848550     0.14230
H833        H  0.06558302  0.76035452  0.36398580     0.14260
C834        C  0.97770553  0.79190533  0.37133647    -0.24700
H835        H  0.05370050  0.63648213  0.49643615     0.04470
H836        H  0.10787505  0.66587880  0.48982547     0.07700
H837        H  0.08723184  0.61963820  0.45398160     0.07700
H838        H  0.96753246  0.82116473  0.39188920     0.07680
H839        H  0.94593857  0.77687184  0.35508473     0.07680
H840        H  0.00001986  0.80677575  0.34776016     0.04450
C841        C  0.21617399  0.39903363  0.28438907    -0.21350
C842        C  0.17000833  0.38402988  0.27524097    -0.07920
C843        C  0.13557406  0.41900820  0.26478773     0.12950
C844        C  0.14740230  0.46726603  0.26781439    -0.21400
C845        C  0.19240894  0.48181473  0.28107383    -0.07920
C846        C  0.22764913  0.44724413  0.28776086     0.12940
C847        C  0.27739666  0.46121117  0.29974760    -0.24750
H848        H  0.24313095  0.37298619  0.29117493     0.14230
H849        H  0.12040878  0.49375603  0.26306774     0.14260
C850        C  0.08581534  0.40653730  0.25149171    -0.24700
H851        H  0.30085590  0.43006733  0.30218720     0.04470
H852        H  0.27957651  0.47945328  0.33014647     0.07700
H853        H  0.29046639  0.48509154  0.27600481     0.07700
H854        H  0.06830561  0.39018181  0.27744639     0.07680
H855        H  0.08516904  0.38210306  0.22457700     0.07680
H856        H  0.06510925  0.43818012  0.24203787     0.04450
C857        C  0.26351878  0.91562102  0.34839419    -0.21350
C858        C  0.23702583  0.88188192  0.32485963    -0.07920
C859        C  0.19998344  0.89783226  0.29777280     0.12950
C860        C  0.19147048  0.94629959  0.29400644    -0.21400
C861        C  0.21944433  0.98027978  0.31545798    -0.07920
C862        C  0.25496277  0.96466740  0.34413026     0.12940
C863        C  0.28495569  0.99948768  0.36871084    -0.24750
H864        H  0.29174440  0.90363732  0.36940512     0.14230
H865        H  0.16385552  0.95794587  0.27215128     0.14260
C866        C  0.17108423  0.86451442  0.27026061    -0.24700
H867        H  0.31135522  0.98152208  0.38954528     0.04470
H868        H  0.26269451  0.02161243  0.38796848     0.07700
H869        H  0.30359488  0.02247334  0.34752390     0.07700
H870        H  0.15061030  0.84069292  0.28926719     0.07680
H871        H  0.19416028  0.84357181  0.25077297     0.07680
H872        H  0.14585509  0.88363298  0.24922599     0.04450
loop_ 
_geom_bond_atom_site_label_1 
_geom_bond_atom_site_label_2 
_geom_bond_distance 
_geom_bond_site_symmetry_2 
_ccdc_geom_bond_type 
N1            N2   1.322       .  A
N1            N7   1.320       .  A
N1          Mn30   2.249       .  S
N2            C9   1.358       .  A
N3            N5   1.312       .  A
N3            N4   1.320       .  A
N3          Mn19   2.197       .  S
N4           C10   1.351       .  A
N5            N6   1.322       .  A
N5          Mn30   2.191       .  S
N6           C10   1.354       .  A
N7            N8   1.324       .  A
N7          Mn19   2.209       .  S
N8            C9   1.355       .  A
C9          C858   1.495       .  S
C10         C762   1.483       .  S
N11          N17   1.318       .  A
N11          N12   1.324       .  A
N11         Mn41   2.230       .  S
N12          C20   1.358       .  A
N13          N14   1.325       .  A
N13          N15   1.316       .  A
N13         Mn19   2.211       .  S
N14          C21   1.355       .  A
N15          N16   1.316       .  A
N15         Mn41   2.182       .  S
N16          C21   1.347       .  A
N17          N18   1.315       .  A
N17         Mn19   2.176       .  S
N18          C20   1.345       .  A
Mn19        Cl43   2.546       .  S
C20         C794   1.471       .  S
C21         C810   1.485       .  S
N22          N23   1.333       .  A
N22          N28   1.318       .  A
N22         Mn30   2.265       .  S
N23          C31   1.366       .  A
N24          N26   1.312       .  A
N24          N25   1.320       .  A
N24         Mn42   2.190       .  S
N25          C32   1.354       .  A
N26          N27   1.319       .  A
N26         Mn30   2.192       .  S
N27          C32   1.352       .  A
N28          N29   1.312       .  A
N28         Mn42   2.164       .  S
N29          C31   1.340       .  A
Mn30        Cl43   2.539       .  S
C31         C845   1.483       .  S
C32         C829   1.490       .  S
N33          N34   1.322       .  A
N33          N39   1.318       .  A
N33         Mn41   2.226       .  S
N34          C44   1.356       .  A
N35          N36   1.319       .  A
N35          N37   1.312       .  A
N35         Mn42   2.176       .  S
N36          C45   1.347       .  A
N37          N38   1.317       .  A
N37         Mn41   2.186       .  S
N38          C45   1.351       .  A
N39          N40   1.318       .  A
N39         Mn42   2.189       .  S
N40          C44   1.351       .  A
Mn41        Cl43   2.529       .  S
Mn42        Cl43   2.542       .  S
C44         C749   1.484       .  S
C45         C778   1.461       .  S
N46          N47   1.323       .  A
N46          N52   1.320       .  A
N46         Mn75   2.235       .  S
N47          C54   1.356   1_556  A
N48          N50   1.312       .  A
N48          N49   1.322       .  A
N48         Mn64   2.195       .  S
N49          C55   1.353       .  A
N50          N51   1.315       .  A
N50         Mn75   2.174       .  S
N51          C55   1.348       .  A
N52          N53   1.318       .  A
N52         Mn64   2.197       .  S
N53          C54   1.351   1_556  A
C54         C765   1.482       .  S
C55         C650   1.465       .  S
N56          N62   1.319       .  A
N56          N57   1.331       .  A
N56         Mn86   2.254       .  S
N57          C65   1.364       .  A
N58          N59   1.322       .  A
N58          N60   1.315       .  A
N58         Mn64   2.211       .  S
N59          C66   1.357       .  A
N60          N61   1.318       .  A
N60         Mn86   2.180       .  S
N61          C66   1.347       .  A
N62          N63   1.311       .  A
N62         Mn64   2.170       .  S
N63          C65   1.341       .  A
Mn64        Cl88   2.541       .  S
C65         C714   1.477       .  S
C66         C698   1.484       .  S
N67          N68   1.327       .  A
N67          N73   1.316       .  A
N67         Mn75   2.242       .  S
N68          C76   1.360       .  A
N69          N71   1.315       .  A
N69          N70   1.322       .  A
N69         Mn87   2.198       .  S
N70          C77   1.352       .  A
N71          N72   1.319       .  A
N71         Mn75   2.184       .  S
N72          C77   1.347       .  A
N73          N74   1.314       .  A
N73         Mn87   2.166       .  S
N74          C76   1.343       .  A
Mn75        Cl88   2.531       .  S
C76         C666   1.472       .  S
C77         C682   1.477       .  S
N78          N79   1.327       .  A
N78          N84   1.319       .  A
N78         Mn86   2.250       .  S
N79          C89   1.360       .  A
N80          N81   1.317       .  A
N80          N82   1.310       .  A
N80         Mn87   2.179       .  S
N81          C90   1.350       .  A
N82          N83   1.323       .  A
N82         Mn86   2.196       .  S
N83          C90   1.356       .  A
N84          N85   1.317       .  A
N84         Mn87   2.189       .  S
N85          C89   1.349       .  A
Mn86        Cl88   2.551       .  S
Mn87        Cl88   2.535       .  S
C89         C733   1.478       .  S
C90         C746   1.486       .  S
N91          N92   1.332       .  A
N91          N97   1.315       .  A
N91        Mn120   2.256       .  S
N92          C99   1.368       .  A
N93          N95   1.316   1_554  A
N93          N94   1.321       .  A
N93        Mn109   2.188       .  S
N94         C100   1.350       .  A
N95          N96   1.318   1_556  A
N95        Mn120   2.199       .  S
N96         C100   1.350       .  A
N97          N98   1.307       .  A
N97        Mn109   2.148   1_556  S
N98          C99   1.338       .  A
C99         C701   1.491       .  S
C100        C621   1.464       .  S
N101        N107   1.316       .  A
N101        N102   1.324       .  A
N101       Mn131   2.227       .  S
N102        C110   1.358       .  A
N103        N104   1.321       .  A
N103        N105   1.312       .  A
N103       Mn109   2.194       .  S
N104        C111   1.354       .  A
N105        N106   1.315       .  A
N105       Mn131   2.173       .  S
N106        C111   1.350       .  A
N107        N108   1.315       .  A
N107       Mn109   2.178       .  S
N108        C110   1.350       .  A
Mn109      Cl133   2.530   1_554  S
C110        C570   1.490       .  S
C111        C586   1.472   1_655  S
N112        N113   1.324       .  A
N112        N118   1.319       .  A
N112       Mn120   2.240       .  S
N113        C121   1.358       .  A
N114        N116   1.315       .  A
N114        N115   1.319       .  A
N114       Mn132   2.195       .  S
N115        C122   1.349       .  A
N116        N117   1.323       .  A
N116       Mn120   2.204       .  S
N117        C122   1.354       .  A
N118        N119   1.317       .  A
N118       Mn132   2.181       .  S
N119        C121   1.347       .  A
Mn120      Cl133   2.556       .  S
C121        C685   1.471       .  S
C122        C554   1.473       .  S
N123        N124   1.324       .  A
N123        N129   1.315       .  A
N123       Mn131   2.230   1_556  S
N124        C134   1.359   1_565  A
N125        N126   1.323       .  A
N125        N127   1.314   1_556  A
N125       Mn132   2.202       .  S
N126        C135   1.356   1_556  A
N127        N128   1.314       .  A
N127       Mn131   2.176       .  S
N128        C135   1.347       .  A
N129        N130   1.315       .  A
N129       Mn132   2.166       .  S
N130        C134   1.347   1_565  A
Mn131      Cl133   2.537   1_554  S
Mn132      Cl133   2.538       .  S
C134        C605   1.485       .  S
C135        C634   1.471   1_565  S
N136        N137   1.327       .  A
N136        N142   1.317       .  A
N136       Mn165   2.234       .  S
N137        C144   1.360       .  A
N138        N140   1.315       .  A
N138        N139   1.322       .  A
N138       Mn154   2.193       .  S
N139        C145   1.353       .  A
N140        N141   1.318       .  A
N140       Mn165   2.200       .  S
N141        C145   1.352       .  A
N142        N143   1.313       .  A
N142       Mn154   2.171       .  S
N143        C144   1.344       .  A
C144        C826   1.473       .  S
C145        C522   1.484       .  S
N146        N152   1.319       .  A
N146        N147   1.323       .  A
N146       Mn176   2.228       .  S
N147        C155   1.355       .  A
N148        N149   1.319       .  A
N148        N150   1.312       .  A
N148       Mn154   2.184       .  S
N149        C156   1.351       .  A
N150        N151   1.315       .  A
N150       Mn176   2.178       .  S
N151        C156   1.351       .  A
N152        N153   1.319       .  A
N152       Mn154   2.196       .  S
N153        C155   1.350       .  A
Mn154      Cl178   2.542       .  S
C155        C557   1.474       .  S
C156        C490   1.462   1_655  S
N157        N158   1.321       .  A
N157        N163   1.317       .  A
N157       Mn165   2.226       .  S
N158        C166   1.357       .  A
N159        N161   1.312       .  A
N159        N160   1.317       .  A
N159       Mn177   2.179       .  S
N160        C167   1.350       .  A
N161        N162   1.322       .  A
N161       Mn165   2.203       .  S
N162        C167   1.357       .  A
N163        N164   1.319       .  A
N163       Mn177   2.189       .  S
N164        C166   1.352       .  A
Mn165      Cl178   2.542       .  S
C166        C813   1.490       .  S
C167        C573   1.489       .  S
N168        N169   1.326       .  A
N168        N174   1.314       .  A
N168       Mn176   2.234       .  S
N169        C179   1.362   1_565  A
N170        N171   1.321       .  A
N170        N172   1.315       .  A
N170       Mn177   2.191       .  S
N171        C180   1.353       .  A
N172        N173   1.316       .  A
N172       Mn176   2.189       .  S
N173        C180   1.349       .  A
N174        N175   1.313       .  A
N174       Mn177   2.167       .  S
N175        C179   1.347   1_565  A
Mn176      Cl178   2.534       .  S
Mn177      Cl178   2.542       .  S
C179        C506   1.492       .  S
C180        C538   1.472   1_565  S
N181        N182   1.324       .  A
N181        N187   1.315       .  A
N181       Mn210   2.225       .  S
N182        C189   1.360       .  A
N183        N185   1.316       .  A
N183        N184   1.324       .  A
N183       Mn199   2.202       .  S
N184        C190   1.354       .  A
N185        N186   1.315       .  A
N185       Mn210   2.181       .  S
N186        C190   1.347       .  A
N187        N188   1.313       .  A
N187       Mn199   2.167       .  S
N188        C189   1.347       .  A
C189        C797   1.486       .  S
C190        C618   1.469       .  S
N191        N197   1.320       .  A
N191        N192   1.325       .  A
N191       Mn221   2.248       .  S
N192        C200   1.358       .  A
N193        N194   1.319       .  A
N193        N195   1.313       .  A
N193       Mn199   2.190       .  S
N194        C201   1.350       .  A
N195        N196   1.323       .  A
N195       Mn221   2.208       .  S
N196        C201   1.356       .  A
N197        N198   1.318       .  A
N197       Mn199   2.186       .  S
N198        C200   1.347       .  A
Mn199      Cl223   2.541       .  S
C200        C461   1.475       .  S
C201        C442   1.483       .  S
N202        N203   1.322   1_554  A
N202        N208   1.317       .  A
N202       Mn210   2.223       .  S
N203        C211   1.356       .  A
N204        N206   1.312       .  A
N204        N205   1.320       .  A
N204       Mn222   2.187       .  S
N205        C212   1.350       .  A
N206        N207   1.318       .  A
N206       Mn210   2.183       .  S
N207        C212   1.351       .  A
N208        N209   1.318   1_554  A
N208       Mn222   2.187       .  S
N209        C211   1.350       .  A
Mn210      Cl223   2.535       .  S
C211        C426   1.479       .  S
C212        C653   1.465       .  S
N213        N214   1.330       .  A
N213        N219   1.316       .  A
N213       Mn221   2.249       .  S
N214        C224   1.366       .  A
N215        N216   1.319       .  A
N215        N217   1.316       .  A
N215       Mn222   2.180       .  S
N216        C225   1.349       .  A
N217        N218   1.319       .  A
N217       Mn221   2.202       .  S
N218        C225   1.352       .  A
N219        N220   1.309       .  A
N219       Mn222   2.161       .  S
N220        C224   1.343       .  A
Mn221      Cl223   2.551       .  S
Mn222      Cl223   2.532       .  S
C224        C477   1.494       .  S
C225        C637   1.478       .  S
N226        N227   1.320       .  A
N226        N232   1.312       .  A
N226       Mn255   2.182       .  S
N227        C234   1.350       .  A
N228        N230   1.318       .  A
N228        N229   1.324       .  A
N228       Mn244   2.236       .  S
N229        C235   1.357       .  A
N230        N231   1.318       .  A
N230       Mn255   2.188       .  S
N231        C235   1.350       .  A
N232        N233   1.316       .  A
N232       Mn244   2.181       .  S
N233        C234   1.351       .  A
C234        C781   1.468       .  S
C235        C445   1.481       .  S
N236        N242   1.314       .  A
N236        N237   1.324       .  A
N236       Mn266   2.204       .  S
N237        C245   1.356       .  A
N238        N239   1.329       .  A
N238        N240   1.315       .  A
N238       Mn244   2.246       .  S
N239        C246   1.363       .  A
N240        N241   1.313       .  A
N240       Mn266   2.164       .  S
N241        C246   1.343       .  A
N242        N243   1.315       .  A
N242       Mn244   2.182       .  S
N243        C245   1.347       .  A
Mn244      Cl268   2.535       .  S
C245        C525   1.478       .  S
C246        C669   1.484       .  S
N247        N248   1.322       .  A
N247        N253   1.315       .  A
N247       Mn255   2.192       .  S
N248        C256   1.353       .  A
N249        N251   1.315       .  A
N249        N250   1.333       .  A
N249       Mn267   2.260       .  S
N250        C257   1.369       .  A
N251        N252   1.308       .  A
N251       Mn255   2.157       .  S
N252        C257   1.339       .  A
N253        N254   1.317       .  A
N253       Mn267   2.192       .  S
N254        C256   1.350       .  A
Mn255      Cl268   2.537       .  S
C256        C541   1.478       .  S
C257        C410   1.497       .  S
N258        N259   1.319       .  A
N258        N264   1.314       .  A
N258       Mn266   2.192       .  S
N259        C269   1.349       .  A
N260        N261   1.324       .  A
N260        N262   1.320       .  A
N260       Mn267   2.242       .  S
N261        C270   1.357       .  A
N262        N263   1.319       .  A
N262       Mn266   2.192       .  S
N263        C270   1.349       .  A
N264        N265   1.321       .  A
N264       Mn267   2.193       .  S
N265        C269   1.354       .  A
Mn266      Cl268   2.540       .  S
Mn267      Cl268   2.550       .  S
C269        C429   1.476       .  S
C270        C394   1.476       .  S
N271        N272   1.336       .  A
N271        N277   1.318       .  A
N271       Mn300   2.280       .  S
N272        C279   1.370       .  A
N273        N275   1.314       .  A
N273        N274   1.321       .  A
N273       Mn289   2.201       .  S
N274        C280   1.354       .  A
N275        N276   1.320       .  A
N275       Mn300   2.188       .  S
N276        C280   1.350       .  A
N277        N278   1.308       .  A
N277       Mn289   2.159       .  S
N278        C279   1.340       .  A
C279        C861   1.494   1_545  S
C280        C474   1.480       .  S
N281        N287   1.319       .  A
N281        N282   1.323       .  A
N281       Mn311   2.234       .  S
N282        C290   1.356       .  A
N283        N284   1.322       .  A
N283        N285   1.313       .  A
N283       Mn289   2.196       .  S
N284        C291   1.352       .  A
N285        N286   1.315       .  A
N285       Mn311   2.177       .  S
N286        C291   1.348       .  A
N287        N288   1.317       .  A
N287       Mn289   2.180       .  S
N288        C290   1.348       .  A
Mn289      Cl313   2.540       .  S
C290        C381   1.473       .  S
C291        C589   1.465   1_545  S
N292        N293   1.328       .  A
N292        N298   1.320       .  A
N292       Mn300   2.266       .  S
N293        C301   1.364       .  A
N294        N296   1.311       .  A
N294        N295   1.318       .  A
N294       Mn312   2.184       .  S
N295        C302   1.351       .  A
N296        N297   1.321       .  A
N296       Mn300   2.193       .  S
N297        C302   1.355       .  A
N298        N299   1.318       .  A
N298       Mn312   2.196       .  S
N299        C301   1.350       .  A
Mn300      Cl313   2.550       .  S
C301        C842   1.504       .  S
C302        C365   1.490       .  S
N303        N304   1.326   1_455  A
N303        N309   1.315       .  A
N303       Mn311   2.241       .  S
N304        C314   1.362       .  A
N305        N306   1.325   1_455  A
N305        N307   1.315       .  A
N305       Mn312   2.212       .  S
N306        C315   1.358       .  A
N307        N308   1.317   1_455  A
N307       Mn311   2.181       .  S
N308        C315   1.346       .  A
N309        N310   1.314   1_455  A
N309       Mn312   2.166       .  S
N310        C314   1.346       .  A
Mn311      Cl313   2.527       .  S
Mn312      Cl313   2.545       .  S
C314        C509   1.486       .  S
C315        C458   1.488       .  S
N316        N317   1.336       .  A
N316        N322   1.316       .  A
N316       Mn345   2.267       .  S
N317        C324   1.371       .  A
N318        N320   1.314       .  A
N318        N319   1.322       .  A
N318       Mn334   2.199       .  S
N319        C325   1.356       .  A
N320        N321   1.321       .  A
N320       Mn345   2.194       .  S
N321        C325   1.350       .  A
N322        N323   1.306       .  A
N322       Mn334   2.149       .  S
N323        C324   1.339       .  A
C324        C730   1.493   1_545  S
C325        C413   1.490       .  S
N326        N332   1.319       .  A
N326        N327   1.322       .  A
N326       Mn356   2.230       .  S
N327        C335   1.357       .  A
N328        N329   1.318       .  A
N328        N330   1.312       .  A
N328       Mn334   2.177       .  S
N329        C336   1.347   1_545  A
N330        N331   1.317       .  A
N330       Mn356   2.184       .  S
N331        C336   1.352   1_545  A
N332        N333   1.316       .  A
N332       Mn334   2.185       .  S
N333        C335   1.351       .  A
Mn334      Cl358   2.526       .  S
C335        C362   1.489       .  S
C336        C493   1.458       .  S
N337        N338   1.322       .  A
N337        N343   1.320       .  A
N337       Mn345   2.242       .  S
N338        C346   1.358       .  A
N339        N341   1.313       .  A
N339        N340   1.317       .  A
N339       Mn357   2.183       .  S
N340        C347   1.347       .  A
N341        N342   1.323       .  A
N341       Mn345   2.194       .  S
N342        C347   1.354       .  A
N343        N344   1.320       .  A
N343       Mn357   2.200       .  S
N344        C346   1.354       .  A
Mn345      Cl358   2.554       .  S
C346        C717   1.495       .  S
C347        C378   1.474       .  S
N348        N349   1.328   1_455  A
N348        N354   1.315       .  A
N348       Mn356   2.245       .  S
N349        C359   1.364       .  A
N350        N351   1.324   1_455  A
N350        N352   1.316       .  A
N350       Mn357   2.208       .  S
N351        C360   1.355       .  A
N352        N353   1.319   1_455  A
N352       Mn356   2.190       .  S
N353        C360   1.348       .  A
N354        N355   1.312   1_455  A
N354       Mn357   2.167       .  S
N355        C359   1.346       .  A
Mn356      Cl358   2.540       .  S
Mn357      Cl358   2.536       .  S
C359        C602   1.492       .  S
C360        C397   1.482       .  S
C361        C362   1.407       .  A
C361        C366   1.402       .  A
C361        H368   1.083       .  S
C362        C363   1.415       .  A
C363        C364   1.405       .  A
C363        C370   1.508       .  S
C364        C365   1.409       .  A
C364        H369   1.083       .  S
C365        C366   1.416       .  A
C366        C367   1.509       .  S
C367        H371   1.111       .  S
C367        H372   1.110       .  S
C367        H373   1.111       .  S
C370        H374   1.110       .  S
C370        H375   1.110       .  S
C370        H376   1.111   1_455  S
C377        C378   1.399       .  A
C377        C382   1.402   1_556  A
C377        H384   1.085       .  S
C378        C379   1.417       .  A
C379        C380   1.403   1_556  A
C379        C386   1.508       .  S
C380        C381   1.398       .  A
C380        H385   1.085       .  S
C381        C382   1.416       .  A
C382        C383   1.507       .  S
C383        H387   1.111       .  S
C383        H388   1.108       .  S
C383        H389   1.108       .  S
C386        H390   1.108       .  S
C386        H391   1.111       .  S
C386        H392   1.111       .  S
C393        C394   1.402       .  A
C393        C398   1.408       .  A
C393        H400   1.083       .  S
C394        C395   1.410       .  A
C395        C396   1.405       .  A
C395        C402   1.507       .  S
C396        C397   1.405       .  A
C396        H401   1.083       .  S
C397        C398   1.414       .  A
C398        C399   1.507       .  S
C399        H403   1.111       .  S
C399        H404   1.109       .  S
C399        H405   1.110       .  S
C402        H406   1.110       .  S
C402        H407   1.111       .  S
C402        H408   1.111       .  S
C409        C410   1.404       .  A
C409        C414   1.412       .  A
C409        H416   1.083       .  S
C410        C411   1.429       .  A
C411        C412   1.400       .  A
C411        C418   1.512       .  S
C412        C413   1.396       .  A
C412        H417   1.084       .  S
C413        C414   1.421       .  A
C414        C415   1.506       .  S
C415        H419   1.111       .  S
C415        H420   1.111       .  S
C415        H421   1.109       .  S
C418        H422   1.110       .  S
C418        H423   1.110       .  S
C418        H424   1.111       .  S
C425        C426   1.403       .  A
C425        C430   1.403       .  A
C425        H432   1.084       .  S
C426        C427   1.415       .  A
C427        C428   1.404       .  A
C427        C434   1.507       .  S
C428        C429   1.403       .  A
C428        H433   1.084       .  S
C429        C430   1.414       .  A
C430        C431   1.508       .  S
C431        H435   1.111       .  S
C431        H436   1.111       .  S
C431        H437   1.109       .  S
C434        H438   1.109       .  S
C434        H439   1.111       .  S
C434        H440   1.111       .  S
C441        C442   1.407       .  A
C441        C446   1.407       .  A
C441        H448   1.085       .  S
C442        C443   1.412       .  A
C443        C444   1.405       .  A
C443        C450   1.507       .  S
C444        C445   1.405       .  A
C444        H449   1.085       .  S
C445        C446   1.411       .  A
C446        C447   1.507       .  S
C447        H451   1.111       .  S
C447        H452   1.111       .  S
C447        H453   1.109       .  S
C450        H454   1.109       .  S
C450        H455   1.111       .  S
C450        H456   1.111       .  S
C457        C458   1.406       .  A
C457        C462   1.405       .  A
C457        H464   1.083       .  S
C458        C459   1.420       .  A
C459        C460   1.408       .  A
C459        C466   1.508       .  S
C460        C461   1.400       .  A
C460        H465   1.084       .  S
C461        C462   1.410       .  A
C462        C463   1.507       .  S
C463        H467   1.111       .  S
C463        H468   1.111       .  S
C463        H469   1.110       .  S
C466        H470   1.108       .  S
C466        H471   1.110       .  S
C466        H472   1.111       .  S
C473        C474   1.408       .  A
C473        C478   1.410       .  A
C473        H480   1.084       .  S
C474        C475   1.407       .  A
C475        C476   1.398       .  A
C475        C482   1.509       .  S
C476        C477   1.412       .  A
C476        H481   1.083       .  S
C477        C478   1.414       .  A
C478        C479   1.505       .  S
C479        H483   1.111       .  S
C479        H484   1.109       .  S
C479        H485   1.110       .  S
C482        H486   1.111       .  S
C482        H487   1.109       .  S
C482        H488   1.111       .  S
C489        C490   1.406       .  A
C489        C494   1.401       .  A
C489        H496   1.084   1_455  S
C490        C491   1.410       .  A
C491        C492   1.395       .  A
C491        C498   1.507       .  S
C492        C493   1.401       .  A
C492        H497   1.086   1_565  S
C493        C494   1.405       .  A
C494        C495   1.505       .  S
C495        H499   1.111       .  S
C495        H500   1.110       .  S
C495        H501   1.110       .  S
C498        H502   1.111   1_565  S
C498        H503   1.109       .  S
C498        H504   1.110       .  S
C505        C506   1.412       .  A
C505        C510   1.403       .  A
C505        H512   1.083       .  S
C506        C507   1.414       .  A
C507        C508   1.406       .  A
C507        C514   1.507       .  S
C508        C509   1.410       .  A
C508        H513   1.084       .  S
C509        C510   1.410       .  A
C510        C511   1.507       .  S
C511        H515   1.111       .  S
C511        H516   1.110       .  S
C511        H517   1.110       .  S
C514        H518   1.110       .  S
C514        H519   1.110       .  S
C514        H520   1.111       .  S
C521        C522   1.405       .  A
C521        C526   1.400       .  A
C521        H528   1.084       .  S
C522        C523   1.416       .  A
C523        C524   1.407       .  A
C523        C530   1.507       .  S
C524        C525   1.405       .  A
C524        H529   1.084       .  S
C525        C526   1.413       .  A
C526        C527   1.510       .  S
C527        H531   1.111       .  S
C527        H532   1.108       .  S
C527        H533   1.110       .  S
C530        H534   1.110       .  S
C530        H535   1.110       .  S
C530        H536   1.111       .  S
C537        C538   1.405       .  A
C537        C542   1.405       .  A
C537        H544   1.085       .  S
C538        C539   1.409       .  A
C539        C540   1.399       .  A
C539        C546   1.508       .  S
C540        C541   1.405       .  A
C540        H545   1.084       .  S
C541        C542   1.413       .  A
C542        C543   1.507       .  S
C543        H547   1.111       .  S
C543        H548   1.110       .  S
C543        H549   1.109       .  S
C546        H550   1.108       .  S
C546        H551   1.110   1_545  S
C546        H552   1.111       .  S
C553        C554   1.402       .  A
C553        C558   1.406       .  A
C553        H560   1.084       .  S
C554        C555   1.412       .  A
C555        C556   1.405       .  A
C555        C562   1.507       .  S
C556        C557   1.402       .  A
C556        H561   1.083       .  S
C557        C558   1.413       .  A
C558        C559   1.507       .  S
C559        H563   1.110       .  S
C559        H564   1.109       .  S
C559        H565   1.111       .  S
C562        H566   1.111       .  S
C562        H567   1.109       .  S
C562        H568   1.111       .  S
C569        C570   1.408       .  A
C569        C574   1.402       .  A
C569        H576   1.084       .  S
C570        C571   1.414       .  A
C571        C572   1.405       .  A
C571        C578   1.508       .  S
C572        C573   1.410       .  A
C572        H577   1.084       .  S
C573        C574   1.414       .  A
C574        C575   1.508       .  S
C575        H579   1.111       .  S
C575        H580   1.109       .  S
C575        H581   1.110       .  S
C578        H582   1.110       .  S
C578        H583   1.110       .  S
C578        H584   1.111       .  S
C585        C586   1.407       .  A
C585        C590   1.404       .  A
C585        H592   1.083   1_455  S
C586        C587   1.413       .  A
C587        C588   1.398       .  A
C587        C594   1.509       .  S
C588        C589   1.401       .  A
C588        H593   1.082   1_565  S
C589        C590   1.405       .  A
C590        C591   1.503       .  S
C591        H595   1.111       .  S
C591        H596   1.110       .  S
C591        H597   1.109       .  S
C594        H598   1.108   1_465  S
C594        H599   1.110       .  S
C594        H600   1.111   1_565  S
C601        C602   1.412       .  A
C601        C606   1.402       .  A
C601        H608   1.083       .  S
C602        C603   1.414       .  A
C603        C604   1.407       .  A
C603        C610   1.506       .  S
C604        C605   1.410       .  A
C604        H609   1.084   1_545  S
C605        C606   1.410       .  A
C606        C607   1.508       .  S
C607        H611   1.111       .  S
C607        H612   1.109       .  S
C607        H613   1.111       .  S
C610        H614   1.110       .  S
C610        H615   1.110       .  S
C610        H616   1.110   1_545  S
C617        C618   1.404       .  A
C617        C622   1.397       .  A
C617        H624   1.085       .  S
C618        C619   1.408       .  A
C619        C620   1.406       .  A
C619        C626   1.505       .  S
C620        C621   1.405       .  A
C620        H625   1.085       .  S
C621        C622   1.406       .  A
C622        C623   1.507       .  S
C623        H627   1.111       .  S
C623        H628   1.110       .  S
C623        H629   1.111       .  S
C626        H630   1.111       .  S
C626        H631   1.110       .  S
C626        H632   1.111       .  S
C633        C634   1.403       .  A
C633        C638   1.404       .  A
C633        H640   1.084   1_554  S
C634        C635   1.411       .  A
C635        C636   1.399       .  A
C635        C642   1.509       .  S
C636        C637   1.404       .  A
C636        H641   1.084       .  S
C637        C638   1.415       .  A
C638        C639   1.507   1_554  S
C639        H643   1.111       .  S
C639        H644   1.110       .  S
C639        H645   1.109       .  S
C642        H646   1.108   1_545  S
C642        H647   1.110   1_545  S
C642        H648   1.111       .  S
C649        C650   1.404       .  A
C649        C654   1.402   1_556  A
C649        H656   1.085   1_556  S
C650        C651   1.409       .  A
C651        C652   1.400       .  A
C651        C658   1.507       .  S
C652        C653   1.403   1_556  A
C652        H657   1.085       .  S
C653        C654   1.408       .  A
C654        C655   1.506       .  S
C655        H659   1.111       .  S
C655        H660   1.110       .  S
C655        H661   1.110       .  S
C658        H662   1.110       .  S
C658        H663   1.110       .  S
C658        H664   1.111       .  S
C665        C666   1.396       .  A
C665        C670   1.403       .  A
C665        H672   1.084       .  S
C666        C667   1.414       .  A
C667        C668   1.408       .  A
C667        C674   1.507       .  S
C668        C669   1.403       .  A
C668        H673   1.083       .  S
C669        C670   1.421       .  A
C670        C671   1.509       .  S
C671        H675   1.111       .  S
C671        H676   1.111       .  S
C671        H677   1.108       .  S
C674        H678   1.110       .  S
C674        H679   1.111       .  S
C674        H680   1.111       .  S
C681        C682   1.403       .  A
C681        C686   1.405       .  A
C681        H688   1.085       .  S
C682        C683   1.419       .  A
C683        C684   1.403       .  A
C683        C690   1.509       .  S
C684        C685   1.398       .  A
C684        H689   1.085       .  S
C685        C686   1.412       .  A
C686        C687   1.506   1_556  S
C687        H691   1.111       .  S
C687        H692   1.110       .  S
C687        H693   1.110       .  S
C690        H694   1.110       .  S
C690        H695   1.111       .  S
C690        H696   1.111       .  S
C697        C698   1.394       .  A
C697        C702   1.399       .  A
C697        H704   1.084       .  S
C698        C699   1.420       .  A
C699        C700   1.409   1_455  A
C699        C706   1.507       .  S
C700        C701   1.402       .  A
C700        H705   1.083       .  S
C701        C702   1.429   1_655  A
C702        C703   1.512   1_556  S
C703        H707   1.111       .  S
C703        H708   1.110   1_455  S
C703        H709   1.110       .  S
C706        H710   1.111       .  S
C706        H711   1.109       .  S
C706        H712   1.111   1_455  S
C713        C714   1.404       .  A
C713        C718   1.405       .  A
C713        H720   1.085       .  S
C714        C715   1.407       .  A
C715        C716   1.409       .  A
C715        C722   1.505       .  S
C716        C717   1.412       .  A
C716        H721   1.083       .  S
C717        C718   1.419       .  A
C718        C719   1.508       .  S
C719        H723   1.111       .  S
C719        H724   1.110       .  S
C719        H725   1.110       .  S
C722        H726   1.110       .  S
C722        H727   1.110       .  S
C722        H728   1.111       .  S
C729        C730   1.410       .  A
C729        C734   1.395       .  A
C729        H736   1.084       .  S
C730        C731   1.415       .  A
C731        C732   1.418       .  A
C731        C738   1.503       .  S
C732        C733   1.409       .  A
C732        H737   1.084       .  S
C733        C734   1.406       .  A
C734        C735   1.511       .  S
C735        H739   1.111       .  S
C735        H740   1.111       .  S
C735        H741   1.109       .  S
C738        H742   1.110   1_565  S
C738        H743   1.110   1_565  S
C738        H744   1.111       .  S
C745        C746   1.408       .  A
C745        C750   1.403       .  A
C745        H752   1.083       .  S
C746        C747   1.414       .  A
C747        C748   1.404       .  A
C747        C754   1.508       .  S
C748        C749   1.407       .  A
C748        H753   1.083       .  S
C749        C750   1.413       .  A
C750        C751   1.508       .  S
C751        H755   1.111       .  S
C751        H756   1.110       .  S
C751        H757   1.110       .  S
C754        H758   1.109       .  S
C754        H759   1.111       .  S
C754        H760   1.111       .  S
C761        C762   1.401       .  A
C761        C766   1.404       .  A
C761        H768   1.085       .  S
C762        C763   1.418       .  A
C763        C764   1.407       .  A
C763        C770   1.507       .  S
C764        C765   1.402       .  A
C764        H769   1.085       .  S
C765        C766   1.417       .  A
C766        C767   1.508       .  S
C767        H771   1.111       .  S
C767        H772   1.111       .  S
C767        H773   1.109       .  S
C770        H774   1.109       .  S
C770        H775   1.111       .  S
C770        H776   1.111       .  S
C777        C778   1.396       .  A
C777        C782   1.403       .  A
C777        H784   1.084       .  S
C778        C779   1.413       .  A
C779        C780   1.397       .  A
C779        C786   1.510       .  S
C780        C781   1.399       .  A
C780        H785   1.085       .  S
C781        C782   1.418       .  A
C782        C783   1.507       .  S
C783        H787   1.111       .  S
C783        H788   1.111       .  S
C783        H789   1.110       .  S
C786        H790   1.110       .  S
C786        H791   1.110       .  S
C786        H792   1.111       .  S
C793        C794   1.404       .  A
C793        C798   1.405       .  A
C793        H800   1.084       .  S
C794        C795   1.405       .  A
C795        C796   1.400       .  A
C795        C802   1.507       .  S
C796        C797   1.411       .  A
C796        H801   1.084       .  S
C797        C798   1.416       .  A
C798        C799   1.507       .  S
C799        H803   1.111       .  S
C799        H804   1.111       .  S
C799        H805   1.110       .  S
C802        H806   1.109       .  S
C802        H807   1.111       .  S
C802        H808   1.111       .  S
C809        C810   1.407       .  A
C809        C814   1.402       .  A
C809        H816   1.084       .  S
C810        C811   1.410       .  A
C811        C812   1.407       .  A
C811        C818   1.506       .  S
C812        C813   1.410       .  A
C812        H817   1.083       .  S
C813        C814   1.416       .  A
C814        C815   1.509       .  S
C815        H819   1.111       .  S
C815        H820   1.110       .  S
C815        H821   1.110       .  S
C818        H822   1.111       .  S
C818        H823   1.109       .  S
C818        H824   1.111       .  S
C825        C826   1.401   1_455  A
C825        C830   1.402       .  A
C825        H832   1.085   1_455  S
C826        C827   1.408   1_655  A
C827        C828   1.406       .  A
C827        C834   1.506   1_455  S
C828        C829   1.411       .  A
C828        H833   1.084       .  S
C829        C830   1.420       .  A
C830        C831   1.509       .  S
C831        H835   1.111       .  S
C831        H836   1.110       .  S
C831        H837   1.110       .  S
C834        H838   1.111       .  S
C834        H839   1.109       .  S
C834        H840   1.111   1_655  S
C841        C842   1.405       .  A
C841        C846   1.408       .  A
C841        H848   1.083       .  S
C842        C843   1.428       .  A
C843        C844   1.411       .  A
C843        C850   1.508       .  S
C844        C845   1.398       .  A
C844        H849   1.084       .  S
C845        C846   1.417       .  A
C846        C847   1.509       .  S
C847        H851   1.111       .  S
C847        H852   1.109       .  S
C847        H853   1.110       .  S
C850        H854   1.109       .  S
C850        H855   1.110       .  S
C850        H856   1.111       .  S
C857        C858   1.413       .  A
C857        C862   1.419       .  A
C857        H864   1.083       .  S
C858        C859   1.414       .  A
C859        C860   1.401       .  A
C859        C866   1.509       .  S
C860        C861   1.408       .  A
C860        H865   1.084       .  S
C861        C862   1.411       .  A
C862        C863   1.503       .  S
C863        H867   1.110       .  S
C863        H868   1.111   1_565  S
C863        H869   1.110   1_565  S
C866        H870   1.109       .  S
C866        H871   1.111       .  S
C866        H872   1.109       .  S
