geometry optimzed in LAMMPS
_audit_creation_date              2020-11-30 
_audit_creation_method            'lammps2cif' 
_symmetry_space_group_name_H-M    'P1' 
_symmetry_Int_Tables_number       1 
_symmetry_cell_setting            triclinic 
loop_ 
_symmetry_equiv_pos_as_xyz 
  x,y,z 
_cell_length_a                    24.91022033 
_cell_length_b                    25.014691985662157 
_cell_length_c                    24.98734114729521 
_cell_angle_alpha                 89.07379498318194 
_cell_angle_beta                  88.65377609291608 
_cell_angle_gamma                 88.66300427809936 
loop_ 
_atom_site_label 
_atom_site_type_symbol 
_atom_site_fract_x 
_atom_site_fract_y 
_atom_site_fract_z 
_atom_site_charge 
O1          O  0.86769489  0.69723467  0.74908819    -0.77700
C2          C  0.72280291  0.60959592  0.79520305     0.83400
O3          O  0.75409765  0.76820070  0.62714268    -0.78800
O4          O  0.61938763  0.74833201  0.77838602    -0.80200
O5          O  0.78892392  0.76805179  0.89257803    -0.80000
O6          O  0.88814986  0.77339260  0.78778981    -0.78700
Zn7        Zn  0.79050417  0.68984412  0.73719588     1.55700
O8          O  0.70083541  0.75984008  0.88444663    -0.80100
Cd9        Cd  0.80611245  0.79650799  0.81117687     1.59700
Cd10       Cd  0.72929341  0.79556379  0.70285280     1.59600
O11         O  0.78272111  0.88055591  0.79579731    -0.80100
O12         O  0.75667504  0.75335617  0.76491094    -1.90600
Cd13       Cd  0.69436068  0.73056116  0.80904896     1.59900
O14         O  0.75307818  0.87322122  0.71221978    -0.80000
O15         O  0.69598605  0.64902230  0.81463365    -0.78700
C16         C  0.77383292  0.72163912  0.61888798     0.83900
C17         C  0.90267740  0.72961533  0.76444562     0.83500
O18         O  0.76306019  0.61720805  0.76401525    -0.77600
C19         C  0.74266521  0.75585166  0.91272256     0.84300
O20         O  0.78497561  0.69053308  0.65808411    -0.77700
C21         C  0.76279062  0.90167016  0.75283208     0.84500
C22         C  0.60845514  0.77117787  0.73408665     0.84800
O23         O  0.64555096  0.79082585  0.70385428    -0.80100
O24         O  0.21475353  0.73191414  0.87630180    -0.77700
C25         C  0.10695793  0.75639888  0.74418071     0.83400
O26         O  0.28720831  0.61877463  0.76712210    -0.78800
O27         O  0.24782117  0.76419515  0.62862391    -0.80200
O28         O  0.27403811  0.88338904  0.78988885    -0.80000
O29         O  0.28057632  0.78478076  0.89601907    -0.78700
Zn30       Zn  0.20150270  0.72321335  0.80201269     1.55700
O31         O  0.23296929  0.87166599  0.71180112    -0.80100
Cd32       Cd  0.29557705  0.80376594  0.81199640     1.59700
Cd33       Cd  0.30571377  0.69542376  0.73442415     1.59600
O34         O  0.37673593  0.79661875  0.78744602    -0.80100
O35         O  0.25704506  0.75455482  0.76257817    -1.90600
Cd36       Cd  0.21904191  0.79157458  0.70327505     1.59900
O37         O  0.38435658  0.72014327  0.74142362    -0.80000
O38         O  0.13701023  0.77298482  0.70553954    -0.78700
C39         C  0.23992522  0.60848422  0.78473493     0.83900
C40         C  0.24333748  0.75293803  0.91095425     0.83500
O41         O  0.12568625  0.74775001  0.79017875    -0.77600
C42         C  0.25444258  0.90157559  0.74599780     0.84300
O43         O  0.20506764  0.64578246  0.79188582    -0.77700
C44         C  0.40398621  0.76318858  0.75876080     0.84500
C45         C  0.27126753  0.71974694  0.61708646     0.84800
O46         O  0.29283557  0.68965431  0.65277858    -0.80100
C47         C  0.80355769  0.71367673  0.46793831     0.04000
C48         C  0.77986395  0.73191650  0.51639461    -0.12200
C49         C  0.78905833  0.70262104  0.56422788     0.01500
C50         C  0.81862057  0.65421709  0.56154662    -0.10700
C51         C  0.84642120  0.63788313  0.51516129     0.04000
C52         C  0.83784840  0.66827251  0.46816901    -0.10100
H53         H  0.75481389  0.76788327  0.51674302     0.09600
H54         H  0.82255835  0.63087362  0.59753644     0.07100
H55         H  0.85769870  0.65704714  0.43090246     0.06900
C56         C  0.96000503  0.71448819  0.74919671     0.04000
C57         C  0.00515699  0.74656862  0.75701312    -0.12200
C58         C  0.05526885  0.73206832  0.73250761     0.01500
C59         C  0.05980515  0.68636802  0.70080348    -0.10700
C60         C  0.01669587  0.65237684  0.69440333     0.04000
C61         C  0.96792313  0.66646830  0.72039239    -0.10100
H62         H  0.00138090  0.78227669  0.78084143     0.09600
H63         H  0.09822710  0.67719323  0.68152027     0.07100
H64         H  0.93441530  0.64092553  0.71625161     0.06900
C65         C  0.98435363  0.69441259  0.28390699     0.04000
C66         C  0.98539127  0.64758400  0.31616670    -0.12200
C67         C  0.03242945  0.62918259  0.34183149     0.01500
C68         C  0.07863991  0.65896216  0.33182220    -0.10700
C69         C  0.08058308  0.70154604  0.29443047     0.04000
C70         C  0.03255150  0.72109754  0.27196605    -0.10100
H71         H  0.94767817  0.62844774  0.32376847     0.09600
H72         H  0.11432030  0.65058856  0.35424028     0.07100
H73         H  0.03269854  0.75565413  0.24530871     0.06900
N74         N  0.97111957  0.59090484  0.46189613    -0.35800
N75         N  0.96598087  0.60177080  0.57644883    -0.56300
N76         N  0.08230569  0.59954488  0.57734569    -0.35800
N77         N  0.08639906  0.57418127  0.46482776    -0.56300
C78         C  0.91881317  0.58097429  0.47137253     0.27800
C79         C  0.98305252  0.57500702  0.41186366     0.27800
C80         C  0.07055108  0.59387407  0.63012295     0.27800
C81         C  0.13402529  0.58401116  0.56975808     0.27800
C82         C  0.91590312  0.58605045  0.56717735     0.36400
C83         C  0.97440095  0.59191820  0.62859901     0.36400
C84         C  0.08001285  0.56975205  0.41148455     0.36400
C85         C  0.13982751  0.57236285  0.47331241     0.36400
C86         C  0.89701652  0.55790395  0.42715388    -0.21000
C87         C  0.93820052  0.55356084  0.38937579    -0.21000
C88         C  0.11478231  0.57356887  0.65669990    -0.21000
C89         C  0.15477035  0.56609409  0.61811737    -0.21000
C90         C  0.89315257  0.56366990  0.61310625    -0.22100
C91         C  0.93071176  0.56708191  0.65230202    -0.22100
C92         C  0.12923196  0.55839621  0.38669822    -0.22100
C93         C  0.16718930  0.55975931  0.42600776    -0.22100
C94         C  0.89038176  0.59542323  0.51820527    -0.17500
C95         C  0.03197061  0.58574227  0.38532844    -0.17500
C96         C  0.16303557  0.59107252  0.52090697    -0.17400
C97         C  0.02068929  0.60758729  0.65438693    -0.17400
H98         H  0.85585975  0.54612660  0.42263166     0.15500
H99         H  0.93521347  0.53818142  0.34936288     0.15500
H100        H  0.11753472  0.56458898  0.69909072     0.15500
H101        H  0.19478655  0.55000858  0.62496402     0.15500
H102        H  0.85373260  0.54667546  0.61778041     0.13700
H103        H  0.92649999  0.55292601  0.69331759     0.13700
H104        H  0.13724929  0.55388243  0.34421211     0.13700
H105        H  0.21027302  0.55628238  0.41977221     0.13700
H106        H  0.99543120  0.61423593  0.48491561     0.27000
H107        H  0.05878054  0.61971606  0.54930349     0.27000
C108        C  0.25774925  0.70166251  0.46643882     0.04000
C109        C  0.27739295  0.72191208  0.51445067    -0.12200
C110        C  0.26305436  0.69672479  0.56376623     0.01500
C111        C  0.23216706  0.65042126  0.56427556    -0.10700
C112        C  0.20790890  0.63188503  0.51809157     0.04000
C113        C  0.21984975  0.66012400  0.47029815    -0.10100
H114        H  0.30267618  0.75654834  0.51366527     0.09600
H115        H  0.22346949  0.63268588  0.60277414     0.07100
H116        H  0.19760945  0.65158346  0.43525277     0.06900
O117        O  0.27799843  0.61119875  0.28337287    -0.77700
C118        C  0.27339447  0.72020233  0.41060082     0.83400
O119        O  0.14547403  0.76865167  0.26643981    -0.78800
O120        O  0.31542929  0.86403266  0.29537885    -0.80200
O121        O  0.40099184  0.72515987  0.21265745    -0.80000
O122        O  0.30568049  0.62644067  0.19993076    -0.78700
Zn123      Zn  0.24944459  0.68472083  0.29805864     1.55700
O124        O  0.40736078  0.76421544  0.29277981    -0.80100
Cd125      Cd  0.32125797  0.70883507  0.20192815     1.59700
Cd126      Cd  0.22157068  0.79076358  0.23444583     1.59600
O127        O  0.29454012  0.73824255  0.12768424    -0.80100
O128        O  0.28083255  0.74302399  0.26245158    -1.90600
Cd129      Cd  0.32587978  0.78142881  0.31543266     1.59900
O130        O  0.21669923  0.77713841  0.15323377    -0.80000
O131        O  0.30463359  0.75897969  0.39835855    -0.78700
C132        C  0.13513059  0.72028057  0.27970934     0.83900
C133        C  0.28930844  0.59453616  0.23690537     0.83500
O134        O  0.25378997  0.69325594  0.37383619    -0.77600
C135        C  0.42852900  0.74661831  0.24884676     0.84300
O136        O  0.17242328  0.68506586  0.28422445    -0.77700
C137        C  0.24815108  0.75786736  0.11701127     0.84500
C138        C  0.28430969  0.89105212  0.26414392     0.84800
O139        O  0.24441655  0.87019973  0.24158705    -0.80100
O140        O  0.76358136  0.85310674  0.22867032    -0.77700
C141        C  0.77463267  0.72705655  0.11496822     0.83400
O142        O  0.64476049  0.73682832  0.30713879    -0.78800
O143        O  0.79188427  0.60951339  0.24408244    -0.80200
O144        O  0.91214287  0.75844198  0.29029742    -0.80000
O145        O  0.82013754  0.87370837  0.29033840    -0.78700
Zn146      Zn  0.74602611  0.78178988  0.21686662     1.55700
O147        O  0.90151063  0.68469588  0.24158440    -0.80100
Cd148      Cd  0.83285356  0.78766446  0.30728813     1.59700
Cd149      Cd  0.72460331  0.70729263  0.31554586     1.59600
O150        O  0.82124670  0.76606070  0.38914397    -0.80100
O151        O  0.78234446  0.73981901  0.26677142    -1.90600
Cd152      Cd  0.82084128  0.68432138  0.22265267     1.59900
O153        O  0.74993229  0.71245579  0.39281228    -0.80000
O154        O  0.80335895  0.69199785  0.13980231    -0.78700
C155        C  0.63287080  0.76477720  0.26601262     0.83900
C156        C  0.78726733  0.88837810  0.25389521     0.83500
O157        O  0.75419710  0.76694267  0.13909242    -0.77600
C158        C  0.93062338  0.71533002  0.26865727     0.84300
O159        O  0.66963398  0.77942202  0.23342368    -0.77700
C160        C  0.78912131  0.73477929  0.41472892     0.84500
C161        C  0.74976763  0.59493859  0.26984023     0.84800
O162        O  0.72042936  0.62719150  0.29737894    -0.80100
C163        C  0.73450435  0.73066935  0.96733029     0.04000
C164        C  0.76479118  0.74102421  0.01324056    -0.12200
C165        C  0.75174466  0.71475770  0.06251425     0.01500
C166        C  0.70698516  0.68173380  0.06597025    -0.10700
C167        C  0.67521810  0.67183544  0.02168366     0.04000
C168        C  0.69200392  0.69418581  0.97229434    -0.10100
H169        H  0.79695788  0.76938897  0.01099563     0.09600
H170        H  0.69667210  0.66421057  0.10467382     0.07100
H171        H  0.67288393  0.68271331  0.93627180     0.06900
C172        C  0.70288398  0.55522272  0.80882392     0.04000
C173        C  0.66416562  0.55269508  0.85019385    -0.12200
C174        C  0.62983549  0.50950199  0.85657553     0.01500
C175        C  0.64114470  0.46436790  0.82570228    -0.10700
C176        C  0.68705795  0.46094762  0.79160955     0.04000
C177        C  0.71635498  0.50798581  0.78050998    -0.10100
H178        H  0.66099505  0.58574393  0.87727005     0.09600
H179        H  0.61586540  0.43009031  0.83106415     0.07100
H180        H  0.74894842  0.50770168  0.75107346     0.06900
C181        C  0.75572466  0.28722222  0.04565798     0.04000
C182        C  0.76323871  0.26308878  0.99489260    -0.12200
C183        C  0.72538957  0.27336309  0.95427260     0.01500
C184        C  0.67899230  0.30481163  0.96707619    -0.10700
C185        C  0.67100578  0.32923967  0.01686781     0.04000
C186        C  0.71105096  0.32139558  0.05492333    -0.10100
H187        H  0.79752242  0.23663929  0.98741234     0.09600
H188        H  0.64930307  0.31228024  0.93689560     0.07100
H189        H  0.70712576  0.34060449  0.09332536     0.06900
N190        N  0.62962490  0.55569015  0.08547100    -0.35800
N191        N  0.60679961  0.44191447  0.08541909    -0.56300
N192        N  0.61450682  0.44621383  0.96944947    -0.35800
N193        N  0.59213847  0.56223587  0.97794273    -0.56300
C194        C  0.61150752  0.54471283  0.13555331     0.27800
C195        C  0.61871208  0.60795405  0.07622327     0.27800
C196        C  0.60288512  0.39539037  0.98245191     0.27800
C197        C  0.58251660  0.46055683  0.92879920     0.27800
C198        C  0.60634208  0.44801632  0.13888098     0.36400
C199        C  0.61211892  0.38889358  0.07695054     0.36400
C200        C  0.60063576  0.61476833  0.98355220     0.36400
C201        C  0.57509943  0.55603369  0.92783650     0.36400
C202        C  0.58782207  0.59013139  0.15784325    -0.21000
C203        C  0.59273270  0.63063493  0.12002397    -0.21000
C204        C  0.56310107  0.37696393  0.95021444    -0.21000
C205        C  0.55042611  0.41860466  0.91543144    -0.21000
C206        C  0.60362082  0.39824924  0.16432267    -0.22100
C207        C  0.60913969  0.36056318  0.12480174    -0.22100
C208        C  0.58228058  0.64323688  0.93940213    -0.22100
C209        C  0.56598108  0.60568761  0.90372920    -0.22100
C210        C  0.62180810  0.49617456  0.16275183    -0.17500
C211        C  0.62842079  0.63420832  0.02727703    -0.17500
C212        C  0.58710925  0.50863661  0.90010176    -0.17400
C213        C  0.62427271  0.36772953  0.02623344    -0.17400
H214        H  0.56961159  0.59365991  0.19742627     0.15500
H215        H  0.57826939  0.67158441  0.12375466     0.15500
H216        H  0.54504021  0.33802205  0.95209067     0.15500
H217        H  0.52161278  0.41812232  0.88370533     0.15500
H218        H  0.60415290  0.39011960  0.20700372     0.13700
H219        H  0.61288840  0.31767738  0.13049623     0.13700
H220        H  0.58272432  0.68605540  0.93258493     0.13700
H221        H  0.55524666  0.61346892  0.86255906     0.13700
H222        H  0.65174695  0.53014968  0.06023007     0.27000
H223        H  0.64433081  0.46902597  0.98601772     0.27000
C224        C  0.74281601  0.44759090  0.24256713     0.04000
C225        C  0.70045449  0.45012054  0.20731329    -0.12200
C226        C  0.66616912  0.49507943  0.20303299     0.01500
C227        C  0.68094875  0.54089467  0.23069680    -0.10700
C228        C  0.72905273  0.54184368  0.25904368     0.04000
C229        C  0.75948243  0.49428371  0.26692647    -0.10100
H230        H  0.69608341  0.41580197  0.18242036     0.09600
H231        H  0.65836137  0.57791020  0.22664245     0.07100
H232        H  0.79519858  0.49384111  0.29085150     0.06900
O233        O  0.77507897  0.22370198  0.11284292    -0.77700
C234        C  0.79222829  0.09692735  0.23216420     0.83400
O235        O  0.64679875  0.26147217  0.26559682    -0.78800
O236        O  0.81430433  0.22035637  0.37176084    -0.80200
O237        O  0.90816623  0.28611419  0.22131437    -0.80000
O238        O  0.80551865  0.30505703  0.12385774    -0.78700
Zn239      Zn  0.75486453  0.20678172  0.18936319     1.55700
O240        O  0.91067099  0.21542438  0.27820565    -0.80100
Cd241      Cd  0.82806760  0.30104627  0.20506901     1.59700
Cd242      Cd  0.72534045  0.28053172  0.28810016     1.59600
O243        O  0.80824733  0.37782125  0.23195859    -0.80100
O244        O  0.78541930  0.24566327  0.24456457    -1.90600
Cd245      Cd  0.82986771  0.19522700  0.29136308     1.59900
O246        O  0.72983167  0.36086350  0.27314654    -0.80000
O247        O  0.81748118  0.11152839  0.27349646    -0.78700
C248        C  0.63722337  0.23675133  0.22277301     0.83900
C249        C  0.78433786  0.27014197  0.09460065     0.83500
O250        O  0.77080432  0.13189992  0.20178004    -0.77600
C251        C  0.93338057  0.25402654  0.25288824     0.84300
O252        O  0.67579941  0.21733307  0.19437417    -0.77700
C253        C  0.76360904  0.39333333  0.25295448     0.84500
C254        C  0.77955969  0.25215420  0.39419141     0.84800
O255        O  0.73987918  0.27257533  0.36906695    -0.80100
O256        O  0.74369579  0.39822023  0.74114193    -0.77700
C257        C  0.88779577  0.28460029  0.74394707     0.83400
O258        O  0.74326130  0.24081203  0.61078549    -0.78800
O259        O  0.77823229  0.13411494  0.78326516    -0.81800
O260        O  0.69013895  0.26095406  0.86883866    -0.80000
O261        O  0.67827073  0.36743498  0.79376993    -0.78700
Zn262      Zn  0.77384986  0.32518686  0.71399382     1.55700
O263        O  0.77763146  0.24213355  0.87568442    -0.80100
Cd264      Cd  0.68044192  0.28614381  0.79147502     1.59700
Cd265      Cd  0.71539600  0.22035839  0.68806932     1.59600
O266        O  0.60542860  0.26710615  0.76480410    -0.80100
O267        O  0.74305688  0.26266005  0.74705452    -1.90600
Cd268      Cd  0.79472483  0.21851145  0.79403995     1.59900
O269        O  0.63200409  0.22930782  0.68861290    -0.80000
O270        O  0.87484598  0.24151243  0.76952224    -0.78700
C271        C  0.76160683  0.28622876  0.59717203     0.83900
C272        C  0.70404122  0.40641671  0.77348540     0.83500
O273        O  0.85182697  0.31752375  0.72722466    -0.77600
C274        C  0.73203789  0.25617282  0.89700740     0.84300
O275        O  0.76976401  0.32126859  0.63271340    -0.77700
C276        C  0.59460568  0.24640033  0.72041025     0.84500
C277        C  0.75271313  0.11325952  0.74481528     0.84800
O278        O  0.73418517  0.14216713  0.70645470    -0.80100
C279        C  0.73806096  0.95732181  0.74945620     0.04000
C280        C  0.68660103  0.95758914  0.72696224    -0.12200
C281        C  0.66056670  0.00428963  0.70941320     0.01500
C282        C  0.68191159  0.05253028  0.72378375    -0.10700
C283        C  0.73361528  0.05636101  0.74502739     0.04000
C284        C  0.76253389  0.00776670  0.75840862    -0.10100
H285        H  0.66715935  0.91987365  0.72119263     0.09600
H286        H  0.65811706  0.08858736  0.71648983     0.07100
H287        H  0.80310836  0.00910103  0.77277808     0.06900
C288        C  0.45472603  0.78067302  0.73323900     0.04000
C289        C  0.50648382  0.76402990  0.74954597    -0.12200
C290        C  0.55167433  0.77683894  0.71674773     0.01500
C291        C  0.54294315  0.79983853  0.66621764    -0.10700
C292        C  0.49371532  0.82475062  0.65383146     0.04000
C293        C  0.44939920  0.81382855  0.68768606    -0.10100
H294        H  0.51139857  0.74223822  0.78697306     0.09600
H295        H  0.57666637  0.80356409  0.63880058     0.07100
H296        H  0.41032107  0.83151685  0.67964634     0.06900
C297        C  0.26718534  0.95605369  0.72680038     0.04000
C298        C  0.29695817  0.95795311  0.67841033    -0.12200
C299        C  0.31433709  0.00596572  0.65460107     0.01500
C300        C  0.29985609  0.05298618  0.68222687    -0.10700
C301        C  0.26792816  0.05284448  0.72936084     0.04000
C302        C  0.25242430  0.00387982  0.75299677    -0.10100
H303        H  0.30823868  0.92013303  0.66135222     0.09600
H304        H  0.31431030  0.09124247  0.66918640     0.07100
H305        H  0.22835746  0.00307709  0.78963801     0.06900
N306        N  0.53542742  0.06143564  0.65036280    -0.35800
N307        N  0.43023262  0.06196613  0.59331230    -0.56300
N308        N  0.43371414  0.94906688  0.60411342    -0.35800
N309        N  0.54074233  0.94245478  0.65551048    -0.56300
C310        C  0.53089097  0.10342550  0.61602129     0.27800
C311        C  0.58827535  0.04858803  0.65290234     0.27800
C312        C  0.38150706  0.95779665  0.59362027     0.27800
C313        C  0.44443165  0.89620494  0.59992695     0.27800
C314        C  0.43720819  0.11495997  0.59444942     0.36400
C315        C  0.37724090  0.05434678  0.58924772     0.36400
C316        C  0.59266438  0.95495002  0.65797727     0.36400
C317        C  0.53796824  0.90446852  0.61827777     0.36400
C318        C  0.58105891  0.11586288  0.59481534    -0.21000
C319        C  0.61756502  0.08118731  0.61839268    -0.21000
C320        C  0.35927947  0.91008891  0.57850985    -0.21000
C321        C  0.39908169  0.87077263  0.58331847    -0.21000
C322        C  0.38927201  0.14192612  0.58415222    -0.22100
C323        C  0.35107100  0.10311140  0.58008151    -0.22100
C324        C  0.62344999  0.92513261  0.62191337    -0.22100
C325        C  0.58842741  0.89283799  0.59655342    -0.22100
C326        C  0.48462552  0.13678387  0.61316876    -0.17500
C327        C  0.60920744  0.00283251  0.67909316    -0.17500
C328        C  0.49333179  0.87172493  0.61555051    -0.17400
C329        C  0.35341942  0.00598352  0.60651926    -0.17400
H330        H  0.59039266  0.14745176  0.56621986     0.15500
H331        H  0.66036970  0.07893804  0.60994058     0.15500
H332        H  0.31786026  0.90381859  0.56855635     0.15500
H333        H  0.39473156  0.82836419  0.57724006     0.15500
H334        H  0.38193716  0.18475645  0.58365421     0.13700
H335        H  0.30825304  0.11017476  0.57646596     0.13700
H336        H  0.66589060  0.92881188  0.61266975     0.13700
H337        H  0.59880320  0.86314533  0.56677749     0.13700
H338        H  0.50455184  0.04477358  0.67371140     0.27000
H339        H  0.45865354  0.97649455  0.62093551     0.27000
C340        C  0.53784381  0.23820753  0.70571659     0.04000
C341        C  0.52955688  0.21155843  0.65796104    -0.12200
C342        C  0.48259523  0.18365374  0.65000189     0.01500
C343        C  0.43893118  0.19303083  0.68567280    -0.10700
C344        C  0.44248056  0.22915984  0.72791072     0.04000
C345        C  0.49292039  0.25022316  0.73960924    -0.10100
H346        H  0.56233330  0.20787534  0.62935599     0.09600
H347        H  0.40171067  0.17228420  0.68132048     0.07100
H348        H  0.49716324  0.27468518  0.77455025     0.06900
O349        O  0.11045729  0.27229676  0.78100673    -0.77700
C350        C  0.22541218  0.25215946  0.90982233     0.83400
O351        O  0.26909816  0.39094230  0.75285382    -0.78800
O352        O  0.36635636  0.21479932  0.78556981    -0.80200
O353        O  0.22493689  0.13524007  0.71453723    -0.80000
O354        O  0.12488659  0.23449300  0.70205189    -0.78700
Zn355      Zn  0.18617239  0.28812011  0.79960230     1.55700
O356        O  0.27147558  0.12573683  0.79020598    -0.80100
Cd357      Cd  0.20737815  0.21513937  0.70277045     1.59700
Cd358      Cd  0.28842438  0.31251069  0.72584449     1.59600
O359        O  0.23647905  0.23712878  0.62619021    -0.80100
O360        O  0.24275374  0.25485307  0.76008074    -1.90600
Cd361      Cd  0.28519791  0.20624162  0.81078307     1.59900
O362        O  0.27565388  0.31397783  0.64383657    -0.80000
O363        O  0.26635229  0.22348455  0.89471969    -0.78700
C364        C  0.22482813  0.40289347  0.77709986     0.83900
C365        C  0.09354936  0.25725196  0.73640273     0.83500
O366        O  0.19540761  0.27389589  0.87512976    -0.77600
C367        C  0.25103007  0.10648754  0.74819159     0.84300
O368        O  0.19307178  0.36628051  0.79219231    -0.77700
C369        C  0.25761334  0.28086268  0.61070267     0.84500
C370        C  0.39091307  0.24679844  0.75318513     0.84800
O371        O  0.36817894  0.28829870  0.73259670    -0.80100
C372        C  0.22858933  0.73782586  0.96768179     0.04000
C373        C  0.24866414  0.76054392  0.01431433    -0.12200
C374        C  0.22481589  0.74691070  0.06461881     0.01500
C375        C  0.17938867  0.71450523  0.06712586    -0.10700
C376        C  0.16142696  0.68813441  0.02208383     0.04000
C377        C  0.18968469  0.69777519  0.97392859    -0.10100
H378        H  0.28189048  0.78767256  0.01173994     0.09600
H379        H  0.16165994  0.70643743  0.10598832     0.07100
H380        H  0.18245023  0.67272065  0.94033045     0.06900
C381        C  0.20870112  0.45864414  0.79261503     0.04000
C382        C  0.16169506  0.46411006  0.82518135    -0.12200
C383        C  0.14754544  0.51168991  0.85118742     0.01500
C384        C  0.18108997  0.55487703  0.84185648    -0.10700
C385        C  0.22186006  0.55444572  0.80199139     0.04000
C386        C  0.23786757  0.50516196  0.77878612    -0.10100
H387        H  0.13728318  0.42975470  0.83263318     0.09600
H388        H  0.17549608  0.59056707  0.86514057     0.07100
H389        H  0.27126592  0.50321038  0.75032324     0.06900
C390        C  0.21095823  0.26677103  0.96679080     0.04000
C391        C  0.24272334  0.25525759  0.01234540    -0.12200
C392        C  0.23091074  0.28261910  0.06089693     0.01500
C393        C  0.19170187  0.32372411  0.06052747    -0.10700
C394        C  0.15445100  0.32967285  0.01997152     0.04000
C395        C  0.16406798  0.29979099  0.97380290    -0.10100
H396        H  0.27597112  0.22669992  0.00988293     0.09600
H397        H  0.18971569  0.35092966  0.09354430     0.07100
H398        H  0.13653323  0.30531557  0.94140702     0.06900
N399        N  0.11212426  0.45173546  0.96702697    -0.35800
N400        N  0.10912030  0.44881375  0.08089868    -0.56300
N401        N  0.13201117  0.56272156  0.07971259    -0.35800
N402        N  0.09622526  0.56896050  0.97178322    -0.56300
C403        C  0.09704831  0.40122009  0.97742599     0.27800
C404        C  0.09024324  0.46657388  0.92033060     0.27800
C405        C  0.12444061  0.54930991  0.13165542     0.27800
C406        C  0.11600963  0.61428439  0.07427171     0.27800
C407        C  0.09940393  0.39681085  0.07338298     0.36400
C408        C  0.11688273  0.45435531  0.13358537     0.36400
C409        C  0.08944520  0.56254500  0.91888832     0.36400
C410        C  0.09897061  0.62209308  0.97953766     0.36400
C411        C  0.06499863  0.38355858  0.93710923    -0.21000
C412        C  0.06068374  0.42536525  0.90053450    -0.21000
C413        C  0.10300631  0.59217068  0.15986763    -0.21000
C414        C  0.09680614  0.63343210  0.12305339    -0.21000
C415        C  0.09457730  0.37028957  0.12238541    -0.22100
C416        C  0.10544217  0.40716548  0.16087594    -0.22100
C417        C  0.08146301  0.61179595  0.89379180    -0.22100
C418        C  0.08704076  0.64974859  0.93254250    -0.22100
C419        C  0.11055403  0.37227181  0.02380934    -0.17500
C420        C  0.10265008  0.51407434  0.89301766    -0.17500
C421        C  0.12067521  0.64393112  0.02617626    -0.17400
C422        C  0.14045542  0.50011636  0.15413218    -0.17400
H423        H  0.04647452  0.34499201  0.93468574     0.15500
H424        H  0.03950200  0.42524624  0.86320153     0.15500
H425        H  0.09328114  0.59340834  0.20229760     0.15500
H426        H  0.08016559  0.67290367  0.13119927     0.15500
H427        H  0.08934494  0.32784594  0.12907562     0.13700
H428        H  0.10787704  0.39932089  0.20350254     0.13700
H429        H  0.07707733  0.61947644  0.85132526     0.13700
H430        H  0.08702933  0.69262952  0.92595672     0.13700
H431        H  0.13980991  0.47332554  0.98806988     0.27000
H432        H  0.15203280  0.53951843  0.05087605     0.27000
C433        C  0.26175595  0.44539021  0.23331774     0.04000
C434        C  0.21533444  0.44838198  0.20208812    -0.12200
C435        C  0.19182642  0.49713450  0.18550834     0.01500
C436        C  0.22080776  0.54345380  0.19501035    -0.10700
C437        C  0.26908284  0.54184303  0.22290983     0.04000
C438        C  0.28898296  0.49269382  0.24400729    -0.10100
H439        H  0.19819246  0.41133472  0.19079940     0.09600
H440        H  0.20571226  0.58212776  0.18148456     0.07100
H441        H  0.32387434  0.49154553  0.26907413     0.06900
C442        C  0.57733131  0.78068595  0.25069585     0.04000
C443        C  0.52962251  0.75428601  0.26596414    -0.12200
C444        C  0.48409846  0.76123416  0.23327313     0.01500
C445        C  0.48974563  0.78816391  0.18354678    -0.10700
C446        C  0.53545231  0.81786953  0.17082408     0.04000
C447        C  0.57503066  0.81885650  0.20920383    -0.10100
H448        H  0.52829414  0.72814058  0.30089051     0.09600
H449        H  0.45626739  0.78929045  0.15692417     0.07100
H450        H  0.60748483  0.84661595  0.20465690     0.06900
C451        C  0.77131523  0.94444409  0.23657819     0.04000
C452        C  0.79690108  0.99321059  0.24719655    -0.12200
C453        C  0.78095209  0.04011097  0.21783576     0.01500
C454        C  0.74681039  0.03429253  0.17339128    -0.10700
C455        C  0.71771301  0.98812889  0.16595305     0.04000
C456        C  0.72646125  0.94676094  0.20272203    -0.10100
H457        H  0.82719567  0.99483376  0.27742568     0.09600
H458        H  0.73916758  0.06782515  0.14695811     0.07100
H459        H  0.69856265  0.91434680  0.20400458     0.06900
C460        C  0.30243101  0.94385837  0.24340339     0.04000
C461        C  0.33735215  0.94218178  0.19804958    -0.12200
C462        C  0.36046142  0.98873952  0.17627183     0.01500
C463        C  0.34938387  0.03627681  0.20312018    -0.10700
C464        C  0.30870412  0.04136029  0.24282956     0.04000
C465        C  0.28592536  0.99418009  0.26468288    -0.10100
H466        H  0.34747975  0.90371435  0.18085546     0.09600
H467        H  0.37262857  0.07096392  0.19297511     0.07100
H468        H  0.25602752  0.99645962  0.29675196     0.06900
N469        N  0.59293700  0.04344724  0.12375748    -0.35800
N470        N  0.47707744  0.04192165  0.10541567    -0.56300
N471        N  0.47979751  0.93009001  0.12967837    -0.35800
N472        N  0.59697580  0.92937741  0.10676847    -0.56300
C473        C  0.58078097  0.09130694  0.10099467     0.27800
C474        C  0.64480295  0.03227336  0.11076732     0.27800
C475        C  0.42803357  0.93994055  0.11847108     0.27800
C476        C  0.49257715  0.88212659  0.10913347     0.27800
C477        C  0.48395480  0.09470919  0.09750720     0.36400
C478        C  0.42358131  0.03479664  0.10865819     0.36400
C479        C  0.65018902  0.93584359  0.11272873     0.36400
C480        C  0.58917983  0.87612173  0.10732651     0.36400
C481        C  0.62457554  0.10991988  0.07169843    -0.21000
C482        C  0.66536960  0.07226461  0.07788208    -0.21000
C483        C  0.40737582  0.89846942  0.09012610    -0.21000
C484        C  0.44874832  0.86127134  0.08428791    -0.21000
C485        C  0.43482674  0.12029533  0.08884432    -0.22100
C486        C  0.39626050  0.08210830  0.09637274    -0.22100
C487        C  0.67704592  0.88669598  0.11059552    -0.22100
C488        C  0.63819194  0.84865632  0.10738562    -0.22100
C489        C  0.53220284  0.11978889  0.10992058    -0.17500
C490        C  0.67251124  0.98528151  0.12635991    -0.17500
C491        C  0.53926000  0.85375097  0.12209011    -0.17400
C492        C  0.40102545  0.98764172  0.13027932    -0.17400
H493        H  0.62680788  0.14691847  0.04874867     0.15500
H494        H  0.70516309  0.07361690  0.05963546     0.15500
H495        H  0.36710637  0.89568065  0.07522861     0.15500
H496        H  0.44660532  0.82270803  0.06551726     0.15500
H497        H  0.42742581  0.16278664  0.08299662     0.13700
H498        H  0.35319033  0.08899216  0.09671786     0.13700
H499        H  0.71970070  0.87892721  0.11459307     0.13700
H500        H  0.64467456  0.80575802  0.11021341     0.13700
H501        H  0.56865471  0.02162696  0.15032303     0.27000
H502        H  0.50369982  0.95287977  0.15391697     0.27000
C503        C  0.58168800  0.22587555  0.20494095     0.04000
C504        C  0.57829070  0.19302633  0.15974227    -0.12200
C505        C  0.53163625  0.16590092  0.14850413     0.01500
C506        C  0.48660809  0.17726215  0.18104424    -0.10700
C507        C  0.48428462  0.22006903  0.21703789     0.04000
C508        C  0.53334343  0.24263230  0.23189742    -0.10100
H509        H  0.61393304  0.18498689  0.13591583     0.09600
H510        H  0.45205220  0.15234516  0.17914201     0.07100
H511        H  0.53400445  0.27175418  0.26343191     0.06900
C512        C  0.77824754  0.29878475  0.54027259     0.04000
C513        C  0.76883544  0.26561640  0.49599122    -0.12200
C514        C  0.79259469  0.27794525  0.44529378     0.01500
C515        C  0.82656268  0.32191489  0.44001897    -0.10700
C516        C  0.83547056  0.35609363  0.48293592     0.04000
C517        C  0.80875162  0.34474358  0.53170820    -0.10100
H518        H  0.74361951  0.23111892  0.50078397     0.09600
H519        H  0.84614708  0.32886786  0.40153991     0.07100
H520        H  0.81399523  0.37015606  0.56515216     0.06900
C521        C  0.94464506  0.29743301  0.72727729     0.04000
C522        C  0.95124350  0.34011085  0.68996443    -0.12200
C523        C  0.00099106  0.35251992  0.66581037     0.01500
C524        C  0.04556091  0.32111664  0.68056391    -0.10700
C525        C  0.04152860  0.27979691  0.71895448     0.04000
C526        C  0.99096979  0.26787011  0.74299434    -0.10100
H527        H  0.91622940  0.36248391  0.67782269     0.09600
H528        H  0.08459397  0.32885196  0.66243955     0.07100
H529        H  0.98781163  0.23604197  0.77270111     0.06900
C530        C  0.98629082  0.27112568  0.27074837     0.04000
C531        C  0.03292327  0.23817859  0.27303682    -0.12200
C532        C  0.07794373  0.25650550  0.29999601     0.01500
C533        C  0.07405320  0.30523750  0.32723840    -0.10700
C534        C  0.02948867  0.34039629  0.32192827     0.04000
C535        C  0.98663066  0.32261011  0.29212318    -0.10100
H536        H  0.03487086  0.20039129  0.25246793     0.09600
H537        H  0.10826102  0.31672928  0.34993734     0.07100
H538        H  0.95114675  0.34737841  0.28755877     0.06900
N539        N  0.96119156  0.39672199  0.42600561    -0.35800
N540        N  0.95256089  0.39301624  0.54054612    -0.56300
N541        N  0.06961268  0.39386075  0.54481492    -0.35800
N542        N  0.07682055  0.40978174  0.43088277    -0.56300
C543        C  0.90788171  0.40581564  0.43174701     0.27800
C544        C  0.97470098  0.40657539  0.37463561     0.27800
C545        C  0.05536111  0.40428852  0.59613048     0.27800
C546        C  0.12011339  0.41113206  0.53675548     0.27800
C547        C  0.90365734  0.41183140  0.52721200     0.36400
C548        C  0.95947313  0.40703615  0.59140548     0.36400
C549        C  0.07124840  0.41088182  0.37730115     0.36400
C550        C  0.12988941  0.41221314  0.43998040     0.36400
C551        C  0.88676936  0.42248014  0.38337095    -0.21000
C552        C  0.92950182  0.42349233  0.34704711    -0.21000
C553        C  0.09652481  0.42944946  0.62111173    -0.21000
C554        C  0.13722732  0.43494394  0.58298826    -0.21000
C555        C  0.88010419  0.44005249  0.56908586    -0.22100
C556        C  0.91569922  0.43653045  0.61040652    -0.22100
C557        C  0.12042512  0.41911316  0.35202042    -0.22100
C558        C  0.15748467  0.42166645  0.39200236    -0.22100
C559        C  0.87873993  0.39756872  0.47985032    -0.17500
C560        C  0.02520802  0.39218595  0.35231860    -0.17500
C561        C  0.15226738  0.39974602  0.49057491    -0.17400
C562        C  0.00523072  0.39251319  0.62002803    -0.17400
H563        H  0.84521469  0.43257056  0.37531630     0.15500
H564        H  0.92740177  0.43428838  0.30501440     0.15500
H565        H  0.09674875  0.44290472  0.66206092     0.15500
H566        H  0.17598067  0.45227239  0.58906660     0.15500
H567        H  0.84081793  0.45947899  0.57006202     0.13700
H568        H  0.91012138  0.45325276  0.64986273     0.13700
H569        H  0.12891660  0.42016106  0.30933402     0.13700
H570        H  0.20015968  0.42743178  0.38614048     0.13700
H571        H  0.98603661  0.37706532  0.45327827     0.27000
H572        H  0.04866350  0.37007239  0.51898458     0.27000
C573        C  0.25167039  0.29909053  0.55445704     0.04000
C574        C  0.21703034  0.34330362  0.54701735    -0.12200
C575        C  0.20071399  0.36132667  0.49604038     0.01500
C576        C  0.22470939  0.33444693  0.45184066    -0.10700
C577        C  0.26239856  0.29201067  0.45778651     0.04000
C578        C  0.27425470  0.27256713  0.50958547    -0.10100
H579        H  0.19979051  0.36005234  0.58291958     0.09600
H580        H  0.21214039  0.34261334  0.41170508     0.07100
H581        H  0.30052983  0.23786989  0.51486065     0.06900
O582        O  0.23361879  0.29548413  0.15432637    -0.77700
C583        C  0.13353211  0.23997539  0.28610558     0.83400
O584        O  0.32310009  0.37275294  0.26116435    -0.78800
O585        O  0.26252873  0.22327751  0.39295288    -0.80200
O586        O  0.30313116  0.13108336  0.21668585    -0.80000
O587        O  0.28467537  0.22950507  0.12334522    -0.78700
Zn588      Zn  0.22928416  0.29103970  0.23384906     1.55700
O589        O  0.27013175  0.11358038  0.29881660    -0.80100
Cd590      Cd  0.31203366  0.20988576  0.20069496     1.59700
Cd591      Cd  0.33621094  0.29414314  0.29447562     1.59600
O592        O  0.39202102  0.22129692  0.20350364    -0.80100
O593        O  0.28118072  0.24567577  0.26322074    -1.90600
Cd594      Cd  0.24536174  0.19464582  0.31630326     1.59900
O595        O  0.41647419  0.26530977  0.27542818    -0.80000
O596        O  0.16029860  0.20591121  0.31417530    -0.78700
C597        C  0.27527293  0.39156003  0.25596813     0.83900
C598        C  0.25256889  0.26876503  0.11493392     0.83500
O599        O  0.15615160  0.27036649  0.25200953    -0.77600
C600        C  0.29163028  0.09794223  0.25433601     0.84300
O601        O  0.23561302  0.36189142  0.26561710    -0.77700
C602        C  0.42848047  0.23772281  0.23376068     0.84500
C603        C  0.28286087  0.26732763  0.40734734     0.84800
O604        O  0.31194246  0.29625013  0.37572038    -0.80100
loop_ 
_geom_bond_atom_site_label_1 
_geom_bond_atom_site_label_2 
_geom_bond_distance 
_geom_bond_site_symmetry_2 
_ccdc_geom_bond_type 
O1           C17   1.273       .  A
O1           Zn7   1.966       .  S
C2           O18   1.271       .  A
C2           O15   1.274       .  A
C2          C172   1.490       .  S
O3           C16   1.272       .  A
O3          Cd10   2.097       .  S
O4           C22   1.270       .  A
O4          Cd13   2.071       .  S
O5           C19   1.288       .  A
O5           Cd9   2.180       .  S
O6           C17   1.289       .  A
O6           Cd9   2.180       .  S
Zn7          O18   2.053       .  S
Zn7          O20   1.985       .  S
Zn7          O12   1.913       .  S
O8           C19   1.274       .  A
O8          Cd13   2.044       .  S
Cd9          O11   2.199       .  S
Cd9          O12   2.046       .  S
Cd10         O14   2.063       .  S
Cd10         O23   2.092       .  S
Cd10         O12   1.987       .  S
O11          C21   1.293       .  A
O12         Cd13   1.973       .  S
Cd13         O15   2.042       .  S
O14          C21   1.280       .  A
C16          O20   1.273       .  A
C16          C49   1.491       .  S
C17          C56   1.510       .  S
C19         C163   1.505       .  S
C21         C279   1.511       .  S
C22          O23   1.282       .  A
C22         C290   1.492       .  S
O24          C40   1.263       .  A
O24         Zn30   1.910       .  S
C25          O41   1.264       .  A
C25          O38   1.278       .  A
C25          C58   1.474       .  S
O26          C39   1.278       .  A
O26         Cd33   2.128       .  S
O27          C45   1.278       .  A
O27         Cd36   2.102       .  S
O28          C42   1.283       .  A
O28         Cd32   2.119       .  S
O29          C40   1.282       .  A
O29         Cd32   2.171       .  S
Zn30         O41   1.999       .  S
Zn30         O43   1.957       .  S
Zn30         O35   1.860       .  S
O31          C42   1.279       .  A
O31         Cd36   2.057       .  S
Cd32         O34   2.103       .  S
Cd32         O35   2.030       .  S
Cd33         O37   2.080       .  S
Cd33         O46   2.080       .  S
Cd33         O35   2.016       .  S
O34          C44   1.282       .  A
O35         Cd36   1.982       .  S
Cd36         O38   2.105       .  S
O37          C44   1.279       .  A
C39          O43   1.271       .  A
C39         C385   1.489       .  S
C40         C372   1.501       .  S
C42         C297   1.476       .  S
C44         C288   1.475       .  S
C45          O46   1.278       .  A
C45         C110   1.480       .  S
C47         C160   1.472       .  S
C47          C48   1.412       .  A
C47          C52   1.405       .  A
C48          C49   1.412       .  A
C48          H53   1.083       .  S
C49          C50   1.404       .  A
C50          C51   1.398       .  A
C50          H54   1.069       .  S
C51          C94   1.510       .  S
C51          C52   1.406       .  A
C52          H55   1.082       .  S
C56          C57   1.416   1_655  A
C56          C61   1.418       .  A
C57          C58   1.419       .  A
C57          H62   1.083       .  S
C58          C59   1.402       .  A
C59          C60   1.399       .  A
C59          H63   1.083       .  S
C60          C97   1.514       .  S
C60          C61   1.404   1_455  A
C61          H64   1.071       .  S
C65         C158   1.482       .  S
C65          C66   1.411       .  A
C65          C70   1.411   1_655  A
C66          C67   1.413   1_655  A
C66          H71   1.076       .  S
C67          C95   1.524       .  S
C67          C68   1.401       .  A
C68          C69   1.406       .  A
C68          H72   1.076       .  S
C69         C132   1.484       .  S
C69          C70   1.408       .  A
C70          H73   1.083       .  S
N74          C79   1.343       .  A
N74          C78   1.347       .  A
N74         H106   1.040       .  S
N75          C82   1.343       .  A
N75          C83   1.343       .  A
N76          C81   1.347       .  A
N76          C80   1.350       .  A
N76         H107   1.041       .  S
N77          C84   1.353       .  A
N77          C85   1.352       .  A
C78          C86   1.383       .  A
C78          C94   1.402       .  A
C79          C95   1.403   1_655  A
C79          C87   1.385       .  A
C80          C88   1.382       .  A
C80          C97   1.407       .  A
C81          C96   1.415       .  A
C81          C89   1.389       .  A
C82          C94   1.406       .  A
C82          C90   1.384       .  A
C83          C97   1.401   1_655  A
C83          C91   1.382       .  A
C84          C92   1.386       .  A
C84          C95   1.423       .  A
C85          C93   1.388       .  A
C85          C96   1.425       .  A
C86          C87   1.381       .  A
C86          H98   1.082       .  S
C87          H99   1.082       .  S
C88          C89   1.382       .  A
C88         H100   1.083       .  S
C89         H101   1.083       .  S
C90          C91   1.375       .  A
C90         H102   1.082       .  S
C91         H103   1.082       .  S
C92          C93   1.381       .  A
C92         H104   1.083       .  S
C93         H105   1.083       .  S
C96         C112   1.531       .  S
C108        C118   1.509       .  S
C108        C109   1.412       .  A
C108        C113   1.421       .  A
C109        C110   1.417       .  A
C109        H114   1.083       .  S
C110        C111   1.405       .  A
C111        C112   1.405       .  A
C111        H115   1.072       .  S
C112        C113   1.407       .  A
C113        H116   1.074       .  S
O117        C133   1.263       .  A
O117       Zn123   1.993       .  S
C118        O134   1.262       .  A
C118        O131   1.286       .  A
O119        C132   1.280       .  A
O119       Cd126   2.122       .  S
O120        C138   1.286       .  A
O120       Cd129   2.130       .  S
O121        C135   1.280       .  A
O121       Cd125   2.062       .  S
O122        C133   1.277       .  A
O122       Cd125   2.108       .  S
Zn123       O134   1.915       .  S
Zn123       O136   1.957       .  S
Zn123       O128   1.873       .  S
O124        C135   1.286       .  A
O124       Cd129   2.130       .  S
Cd125       O127   2.102       .  S
Cd125       O128   1.991       .  S
Cd126       O130   2.070       .  S
Cd126       O139   2.091       .  S
Cd126       O128   2.009       .  S
O127        C137   1.277       .  A
O128       Cd129   2.024       .  S
Cd129       O131   2.194       .  S
O130        C137   1.276       .  A
C132        O136   1.271       .  A
C133        C437   1.472       .  S
C135        C444   1.482       .  S
C137        C374   1.477       .  S
C138        O139   1.280       .  A
C138        C460   1.487       .  S
O140        C156   1.258       .  A
O140       Zn146   1.876       .  S
C141        O157   1.265       .  A
C141        O154   1.281       .  A
C141        C165   1.481       .  S
O142        C155   1.270       .  A
O142       Cd149   2.119       .  S
O143        C161   1.275       .  A
O143       Cd152   2.079       .  S
O144        C158   1.285       .  A
O144       Cd148   2.126       .  S
O145        C156   1.282       .  A
O145       Cd148   2.204       .  S
Zn146       O157   1.989       .  S
Zn146       O159   1.940       .  S
Zn146       O151   1.855       .  S
O147        C158   1.279       .  A
O147       Cd152   2.075       .  S
Cd148       O150   2.122       .  S
Cd148       O151   2.052       .  S
Cd149       O153   2.052       .  S
Cd149       O162   2.067       .  S
Cd149       O151   2.039       .  S
O150        C160   1.285       .  A
O151       Cd152   2.000       .  S
Cd152       O154   2.130       .  S
O153        C160   1.275       .  A
C155        O159   1.268       .  A
C155        C442   1.488       .  S
C156        C451   1.508       .  S
C161        O162   1.275       .  A
C161        C228   1.467       .  S
C163        C164   1.418   1_556  A
C163        C168   1.416       .  A
C164        C165   1.421       .  A
C164        H169   1.082       .  S
C165        C166   1.403       .  A
C166        C167   1.404       .  A
C166        H170   1.083       .  S
C167        C211   1.518       .  S
C167        C168   1.405   1_554  A
C168        H171   1.074       .  S
C172        C173   1.399       .  A
C172        C177   1.417       .  A
C173        C174   1.398       .  A
C173        H178   1.077       .  S
C174        C212   1.504       .  S
C174        C175   1.397       .  A
C175        C176   1.412       .  A
C175        H179   1.080       .  S
C176        C272   1.493       .  S
C176        C177   1.419       .  A
C177        H180   1.083       .  S
C181        C249   1.482       .  S
C181        C182   1.420   1_554  A
C181        C186   1.405       .  A
C182        C183   1.418       .  A
C182        H187   1.083       .  S
C183        C274   1.505       .  S
C183        C184   1.416       .  A
C184        C185   1.403   1_556  A
C184        H188   1.080       .  S
C185        C213   1.510       .  S
C185        C186   1.403       .  A
C186        H189   1.081       .  S
N190        C195   1.347       .  A
N190        C194   1.347       .  A
N190        H222   1.044       .  S
N191        C198   1.347       .  A
N191        C199   1.349       .  A
N192        C197   1.345       .  A
N192        C196   1.344       .  A
N192        H223   1.044       .  S
N193        C200   1.346       .  A
N193        C201   1.344       .  A
C194        C202   1.387       .  A
C194        C210   1.403       .  A
C195        C211   1.398       .  A
C195        C203   1.381       .  A
C196        C204   1.384       .  A
C196        C213   1.395   1_556  A
C197        C212   1.396       .  A
C197        C205   1.384       .  A
C198        C210   1.418       .  A
C198        C206   1.391       .  A
C199        C213   1.405       .  A
C199        C207   1.381       .  A
C200        C208   1.384       .  A
C200        C211   1.406   1_556  A
C201        C209   1.388       .  A
C201        C212   1.406       .  A
C202        C203   1.380       .  A
C202        H214   1.082       .  S
C203        H215   1.083       .  S
C204        C205   1.381       .  A
C204        H216   1.082       .  S
C205        H217   1.082       .  S
C206        C207   1.379       .  A
C206        H218   1.083       .  S
C207        H219   1.082       .  S
C208        C209   1.380       .  A
C208        H220   1.082       .  S
C209        H221   1.082       .  S
C210        C226   1.512       .  S
C224        C253   1.463       .  S
C224        C225   1.390       .  A
C224        C229   1.402       .  A
C225        C226   1.400       .  A
C225        H230   1.077       .  S
C226        C227   1.409       .  A
C227        C228   1.407       .  A
C227        H231   1.077       .  S
C228        C229   1.409       .  A
C229        H232   1.083       .  S
O233        C249   1.265       .  A
O233       Zn239   2.007       .  S
C234        O250   1.266       .  A
C234        O247   1.284       .  A
C234        C453   1.506       .  S
O235        C248   1.275       .  A
O235       Cd242   2.115       .  S
O236        C254   1.287       .  A
O236       Cd245   2.139       .  S
O237        C251   1.281       .  A
O237       Cd241   2.070       .  S
O238        C249   1.279       .  A
O238       Cd241   2.118       .  S
Zn239       O250   1.927       .  S
Zn239       O252   1.982       .  S
Zn239       O244   1.885       .  S
O240        C251   1.281       .  A
O240       Cd245   2.104       .  S
Cd241       O243   2.089       .  S
Cd241       O244   1.999       .  S
Cd242       O246   2.043       .  S
Cd242       O255   2.069       .  S
Cd242       O244   2.019       .  S
O243        C253   1.273       .  A
O244       Cd245   2.033       .  S
Cd245       O247   2.178       .  S
O246        C253   1.273       .  A
C248        O252   1.273       .  A
C248        C503   1.496       .  S
C251        C530   1.476       .  S
C254        O255   1.276       .  A
C254        C514   1.486       .  S
O256        C272   1.276       .  A
O256       Zn262   2.077       .  S
C257        O273   1.276       .  A
C257        O270   1.288       .  A
C257        C521   1.507       .  S
O258        C271   1.273       .  A
O258       Cd265   2.096       .  S
O259        C277   1.288       .  A
O259       Cd268   2.182       .  S
O260        C274   1.275       .  A
O260       Cd264   2.042       .  S
O261        C272   1.272       .  A
O261       Cd264   2.035       .  S
Zn262       O273   1.982       .  S
Zn262       O275   2.040       .  S
Zn262       O267   1.924       .  S
O263        C274   1.287       .  A
O263       Cd268   2.163       .  S
Cd264       O266   2.067       .  S
Cd264       O267   1.977       .  S
Cd265       O269   2.084       .  S
Cd265       O278   2.048       .  S
Cd265       O267   1.975       .  S
O266        C276   1.269       .  A
O267       Cd268   2.054       .  S
Cd268       O270   2.162       .  S
O269        C276   1.280       .  A
C271        O275   1.281       .  A
C271        C512   1.502       .  S
C276        C340   1.489       .  S
C277        O278   1.280       .  A
C277        C283   1.511       .  S
C279        C280   1.412       .  A
C279        C284   1.437   1_565  A
C280        C281   1.392   1_565  A
C280        H285   1.084       .  S
C281        C327   1.504       .  S
C281        C282   1.386       .  A
C282        C283   1.410       .  A
C282        H286   1.083       .  S
C283        C284   1.437       .  A
C284        H287   1.082       .  S
C288        C289   1.413       .  A
C288        C293   1.404       .  A
C289        C290   1.417       .  A
C289        H294   1.083       .  S
C290        C291   1.399       .  A
C291        C292   1.401       .  A
C291        H295   1.076       .  S
C292        C328   1.503       .  S
C292        C293   1.404       .  A
C293        H296   1.082       .  S
C297        C298   1.404       .  A
C297        C302   1.410   1_565  A
C298        C299   1.405   1_565  A
C298        H303   1.073       .  S
C299        C329   1.528       .  S
C299        C300   1.409       .  A
C300        C301   1.406       .  A
C300        H304   1.073       .  S
C301        C367   1.478       .  S
C301        C302   1.409       .  A
C302        H305   1.083       .  S
N306        C311   1.351       .  A
N306        C310   1.350       .  A
N306        H338   1.045       .  S
N307        C314   1.342       .  A
N307        C315   1.345       .  A
N308        C313   1.348       .  A
N308        C312   1.345       .  A
N308        H339   1.037       .  S
N309        C316   1.341       .  A
N309        C317   1.345       .  A
C310        C318   1.386       .  A
C310        C326   1.409       .  A
C311        C327   1.405       .  A
C311        C319   1.384       .  A
C312        C320   1.389       .  A
C312        C329   1.417   1_565  A
C313        C328   1.411       .  A
C313        C321   1.385       .  A
C314        C326   1.406       .  A
C314        C322   1.385       .  A
C315        C329   1.417       .  A
C315        C323   1.388       .  A
C316        C324   1.385       .  A
C316        C327   1.392   1_565  A
C317        C325   1.384       .  A
C317        C328   1.400       .  A
C318        C319   1.378       .  A
C318        H330   1.082       .  S
C319        H331   1.082       .  S
C320        C321   1.386       .  A
C320        H332   1.083       .  S
C321        H333   1.082       .  S
C322        C323   1.382       .  A
C322        H334   1.083       .  S
C323        H335   1.083       .  S
C324        C325   1.375       .  A
C324        H336   1.083       .  S
C325        H337   1.083       .  S
C326        C342   1.501       .  S
C340        C341   1.398       .  A
C340        C345   1.417       .  A
C341        C342   1.396       .  A
C341        H346   1.076       .  S
C342        C343   1.408       .  A
C343        C344   1.406       .  A
C343        H347   1.082       .  S
C344        C370   1.479       .  S
C344        C345   1.412       .  A
C345        H348   1.083       .  S
O349        C365   1.267       .  A
O349       Zn355   2.003       .  S
C350        O366   1.266       .  A
C350        O363   1.286       .  A
C350        C390   1.509       .  S
O351        C364   1.277       .  A
O351       Cd358   2.126       .  S
O352        C370   1.284       .  A
O352       Cd361   2.118       .  S
O353        C367   1.277       .  A
O353       Cd357   2.054       .  S
O354        C365   1.278       .  A
O354       Cd357   2.101       .  S
Zn355       O366   1.933       .  S
Zn355       O368   1.972       .  S
Zn355       O360   1.887       .  S
O356        C367   1.283       .  A
O356       Cd361   2.124       .  S
Cd357       O359   2.100       .  S
Cd357       O360   1.990       .  S
Cd358       O362   2.081       .  S
Cd358       O371   2.073       .  S
Cd358       O360   2.024       .  S
O359        C369   1.276       .  A
O360       Cd361   2.038       .  S
Cd361       O363   2.186       .  S
O362        C369   1.277       .  A
C364        O368   1.271       .  A
C364        C381   1.497       .  S
C365        C525   1.474       .  S
C369        C573   1.480       .  S
C370        O371   1.278       .  A
C372        C373   1.412   1_556  A
C372        C377   1.414       .  A
C373        C374   1.418       .  A
C373        H378   1.083       .  S
C374        C375   1.407       .  A
C375        C376   1.401       .  A
C375        H379   1.075       .  S
C376        C421   1.519       .  S
C376        C377   1.400   1_554  A
C377        H380   1.077       .  S
C381        C382   1.415       .  A
C381        C386   1.420       .  A
C382        C383   1.399       .  A
C382        H387   1.076       .  S
C383        C420   1.514       .  S
C383        C384   1.394       .  A
C384        C385   1.406       .  A
C384        H388   1.078       .  S
C385        C386   1.416       .  A
C386        H389   1.082       .  S
C390        C391   1.423   1_556  A
C390        C395   1.424       .  A
C391        C392   1.424       .  A
C391        H396   1.082       .  S
C392        C598   1.498       .  S
C392        C393   1.402       .  A
C393        C394   1.394       .  A
C393        H397   1.077       .  S
C394        C419   1.511       .  S
C394        C395   1.398   1_554  A
C395        H398   1.078       .  S
N399        C404   1.343       .  A
N399        C403   1.346       .  A
N399        H431   1.043       .  S
N400        C407   1.346       .  A
N400        C408   1.345       .  A
N401        C406   1.347       .  A
N401        C405   1.345       .  A
N401        H432   1.043       .  S
N402        C409   1.349       .  A
N402        C410   1.350       .  A
C403        C411   1.384       .  A
C403        C419   1.400   1_556  A
C404        C420   1.398       .  A
C404        C412   1.385       .  A
C405        C413   1.383       .  A
C405        C422   1.398       .  A
C406        C421   1.406       .  A
C406        C414   1.387       .  A
C407        C419   1.410       .  A
C407        C415   1.387       .  A
C408        C422   1.408       .  A
C408        C416   1.386       .  A
C409        C417   1.386       .  A
C409        C420   1.412       .  A
C410        C418   1.388       .  A
C410        C421   1.419   1_556  A
C411        C412   1.382       .  A
C411        H423   1.082       .  S
C412        H424   1.083       .  S
C413        C414   1.380       .  A
C413        H425   1.083       .  S
C414        H426   1.082       .  S
C415        C416   1.379       .  A
C415        H427   1.083       .  S
C416        H428   1.083       .  S
C417        C418   1.379       .  A
C417        H429   1.083       .  S
C418        H430   1.083       .  S
C422        C435   1.516       .  S
C433        C597   1.487       .  S
C433        C434   1.410       .  A
C433        C438   1.410       .  A
C434        C435   1.401       .  A
C434        H439   1.074       .  S
C435        C436   1.406       .  A
C436        C437   1.404       .  A
C436        H440   1.082       .  S
C437        C438   1.414       .  A
C438        H441   1.083       .  S
C442        C443   1.415       .  A
C442        C447   1.399       .  A
C443        C444   1.419       .  A
C443        H448   1.082       .  S
C444        C445   1.409       .  A
C445        C446   1.402       .  A
C445        H449   1.078       .  S
C446        C491   1.504       .  S
C446        C447   1.392       .  A
C447        H450   1.081       .  S
C451        C452   1.421       .  A
C451        C456   1.417       .  A
C452        C453   1.427   1_565  A
C452        H457   1.082       .  S
C453        C454   1.426       .  A
C454        C455   1.395   1_545  A
C454        H458   1.075       .  S
C455        C490   1.520       .  S
C455        C456   1.389       .  A
C456        H459   1.080       .  S
C460        C461   1.413       .  A
C460        C465   1.423       .  A
C461        C462   1.407       .  A
C461        H466   1.082       .  S
C462        C492   1.513       .  S
C462        C463   1.394   1_565  A
C463        C464   1.407       .  A
C463        H467   1.078       .  S
C464        C600   1.499       .  S
C464        C465   1.417   1_545  A
C465        H468   1.082       .  S
N469        C474   1.349       .  A
N469        C473   1.348       .  A
N469        H501   1.044       .  S
N470        C477   1.346       .  A
N470        C478   1.349       .  A
N471        C476   1.341       .  A
N471        C475   1.342       .  A
N471        H502   1.044       .  S
N472        C479   1.351       .  A
N472        C480   1.351       .  A
C473        C481   1.385       .  A
C473        C489   1.405       .  A
C474        C490   1.404   1_545  A
C474        C482   1.384       .  A
C475        C483   1.381       .  A
C475        C492   1.389       .  A
C476        C491   1.390       .  A
C476        C484   1.385       .  A
C477        C489   1.412       .  A
C477        C485   1.388       .  A
C478        C492   1.412   1_545  A
C478        C486   1.385       .  A
C479        C487   1.387       .  A
C479        C490   1.417       .  A
C480        C488   1.387       .  A
C480        C491   1.414       .  A
C481        C482   1.379       .  A
C481        H493   1.083       .  S
C482        H494   1.082       .  S
C483        C484   1.379       .  A
C483        H495   1.082       .  S
C484        H496   1.082       .  S
C485        C486   1.378       .  A
C485        H497   1.083       .  S
C486        H498   1.082       .  S
C487        C488   1.378       .  A
C487        H499   1.082       .  S
C488        H500   1.083       .  S
C489        C505   1.515       .  S
C503        C504   1.413       .  A
C503        C508   1.424       .  A
C504        C505   1.396       .  A
C504        H509   1.074       .  S
C505        C506   1.396       .  A
C506        C507   1.409       .  A
C506        H510   1.077       .  S
C507        C602   1.501       .  S
C507        C508   1.418       .  A
C508        H511   1.082       .  S
C512        C513   1.421       .  A
C512        C517   1.404       .  A
C513        C514   1.418       .  A
C513        H518   1.083       .  S
C514        C515   1.406       .  A
C515        C516   1.407       .  A
C515        H519   1.081       .  S
C516        C559   1.513       .  S
C516        C517   1.403       .  A
C517        H520   1.070       .  S
C521        C522   1.416       .  A
C521        C526   1.416       .  A
C522        C523   1.405   1_655  A
C522        H527   1.072       .  S
C523        C562   1.511       .  S
C523        C524   1.398       .  A
C524        C525   1.402       .  A
C524        H528   1.083       .  S
C525        C526   1.419   1_455  A
C526        H529   1.083       .  S
C530        C531   1.410   1_655  A
C530        C535   1.402       .  A
C531        C532   1.411       .  A
C531        H536   1.083       .  S
C532        C583   1.471       .  S
C532        C533   1.406       .  A
C533        C534   1.407       .  A
C533        H537   1.082       .  S
C534        C560   1.513       .  S
C534        C535   1.401   1_455  A
C535        H538   1.075       .  S
N539        C544   1.340       .  A
N539        C543   1.347       .  A
N539        H571   1.041       .  S
N540        C547   1.343       .  A
N540        C548   1.340       .  A
N541        C546   1.349       .  A
N541        C545   1.350       .  A
N541        H572   1.042       .  S
N542        C549   1.349       .  A
N542        C550   1.350       .  A
C543        C551   1.384       .  A
C543        C559   1.404       .  A
C544        C560   1.406   1_655  A
C544        C552   1.388       .  A
C545        C553   1.382       .  A
C545        C562   1.407       .  A
C546        C561   1.418       .  A
C546        C554   1.389       .  A
C547        C559   1.404       .  A
C547        C555   1.383       .  A
C548        C562   1.398   1_655  A
C548        C556   1.381       .  A
C549        C557   1.383       .  A
C549        C560   1.411       .  A
C550        C558   1.388       .  A
C550        C561   1.421       .  A
C551        C552   1.383       .  A
C551        H563   1.082       .  S
C552        H564   1.082       .  S
C553        C554   1.382       .  A
C553        H565   1.082       .  S
C554        H566   1.082       .  S
C555        C556   1.377       .  A
C555        H567   1.082       .  S
C556        H568   1.082       .  S
C557        C558   1.379       .  A
C557        H569   1.083       .  S
C558        H570   1.082       .  S
C561        C575   1.532       .  S
C573        C574   1.400       .  A
C573        C578   1.411       .  A
C574        C575   1.410       .  A
C574        H579   1.073       .  S
C575        C576   1.415       .  A
C576        C577   1.409       .  A
C576        H580   1.073       .  S
C577        C603   1.487       .  S
C577        C578   1.411       .  A
C578        H581   1.083       .  S
O582        C598   1.274       .  A
O582       Zn588   1.989       .  S
C583        O599   1.264       .  A
C583        O596   1.280       .  A
O584        C597   1.279       .  A
O584       Cd591   2.144       .  S
O585        C603   1.284       .  A
O585       Cd594   2.112       .  S
O586        C600   1.276       .  A
O586       Cd590   2.021       .  S
O587        C598   1.270       .  A
O587       Cd590   2.111       .  S
Zn588       O599   1.947       .  S
Zn588       O601   1.965       .  S
Zn588       O593   1.857       .  S
O589        C600   1.285       .  A
O589       Cd594   2.154       .  S
Cd590       O592   2.022       .  S
Cd590       O593   1.947       .  S
Cd591       O595   2.155       .  S
Cd591       O604   2.106       .  S
Cd591       O593   2.029       .  S
O592        C602   1.275       .  A
O593       Cd594   2.032       .  S
Cd594       O596   2.133       .  S
O595        C602   1.284       .  A
C597        O601   1.266       .  A
C603        O604   1.285       .  A
