geometry optimzed in LAMMPS
_audit_creation_date              2020-11-30 
_audit_creation_method            'lammps2cif' 
_symmetry_space_group_name_H-M    'P1' 
_symmetry_Int_Tables_number       1 
_symmetry_cell_setting            triclinic 
loop_ 
_symmetry_equiv_pos_as_xyz 
  x,y,z 
_cell_length_a                    50.79467431 
_cell_length_b                    50.76993618280767 
_cell_length_c                    50.745006439636676 
_cell_angle_alpha                 89.99114828714808 
_cell_angle_beta                  89.99276941917672 
_cell_angle_gamma                 89.99871302706056 
loop_ 
_atom_site_label 
_atom_site_type_symbol 
_atom_site_fract_x 
_atom_site_fract_y 
_atom_site_fract_z 
_atom_site_charge 
N1          N  0.75010954  0.91495703  0.41567548     0.00000
C2          C  0.76979688  0.89774084  0.40988980     0.02600
C3          C  0.76351155  0.88249030  0.38832931    -0.20300
C4          C  0.73911703  0.89050912  0.38013218    -0.20500
C5          C  0.73136321  0.91023987  0.39709999     0.02400
H6          H  0.77533657  0.86702347  0.37963678     0.16200
H7          H  0.72831869  0.88301858  0.36333811     0.16300
N8          N  0.75085785  0.91493239  0.55317707     0.00000
C9          C  0.73252456  0.91082822  0.57229779     0.02600
C10         C  0.73996623  0.89069786  0.58892675    -0.20300
C11         C  0.76374234  0.88174479  0.57993187    -0.20500
C12         C  0.76996522  0.89685069  0.55824499     0.02400
H13         H  0.72931652  0.88345865  0.60592965     0.16200
H14         H  0.77516076  0.86571868  0.58814355     0.16300
N15         N  0.75059041  0.05184206  0.41590082     0.00000
C16         C  0.76966449  0.07009610  0.41120431     0.02600
C17         C  0.76300822  0.08599841  0.39022486    -0.20300
C18         C  0.73906271  0.07735622  0.38130880    -0.20500
C19         C  0.73189840  0.05657937  0.39725779     0.02400
H20         H  0.77430691  0.10228190  0.38236166     0.16200
H21         H  0.72815805  0.08518690  0.36473918     0.16300
N22         N  0.75102583  0.05193552  0.55295681     0.00000
C23         C  0.73197388  0.05715131  0.57107454     0.02600
C24         C  0.73896097  0.07803341  0.58694638    -0.20300
C25         C  0.76317871  0.08631377  0.57848390    -0.20500
C26         C  0.77014181  0.07007270  0.55786835     0.02400
H27         H  0.72772280  0.08620952  0.60312264     0.16200
H28         H  0.77441333  0.10264634  0.58633072     0.16300
N29         N  0.74842462  0.98333962  0.44368533    -0.33200
N30         N  0.75090928  0.94243375  0.48440616    -0.53700
N31         N  0.74906974  0.98337086  0.52519278    -0.33200
N32         N  0.75115200  0.02419431  0.48444285    -0.53700
C33         C  0.75267091  0.96176232  0.42846225     0.30400
C34         C  0.75288496  0.00491508  0.42850543     0.30400
C35         C  0.75353111  0.96177815  0.54034567     0.30400
C36         C  0.75356868  0.00496809  0.54034443     0.30400
C37         C  0.74772003  0.92680255  0.46293589     0.39000
C38         C  0.74805722  0.92679637  0.50592147     0.39000
C39         C  0.74783115  0.03979766  0.46299109     0.39000
C40         C  0.74805365  0.03982500  0.50590698     0.39000
C41         C  0.75951454  0.96976172  0.40326413    -0.18500
C42         C  0.75966381  0.99691712  0.40329708    -0.18500
C43         C  0.76062066  0.96980321  0.56547323    -0.18500
C44         C  0.76061142  0.99697505  0.56547662    -0.18500
C45         C  0.74314111  0.90111139  0.47087662    -0.19500
C46         C  0.74331983  0.90111089  0.49802802    -0.19500
C47         C  0.74286006  0.06542526  0.47089991    -0.19500
C48         C  0.74300453  0.06544297  0.49802063    -0.19500
C49         C  0.74986219  0.93497395  0.43619254    -0.14900
C50         C  0.75024047  0.03170343  0.43628529    -0.14900
C51         C  0.75072348  0.03176205  0.53259346    -0.14900
C52         C  0.75060114  0.93496202  0.53264330    -0.14900
H53         H  0.76403496  0.95731140  0.38655554     0.18000
H54         H  0.76430261  0.00937015  0.38661962     0.18000
H55         H  0.76535755  0.95735970  0.58212874     0.18000
H56         H  0.76531315  0.00944585  0.58211940     0.18000
H57         H  0.74001420  0.88411393  0.45839573     0.16300
H58         H  0.74033326  0.88410276  0.51053178     0.16300
H59         H  0.73948935  0.08238036  0.45842269     0.16300
H60         H  0.73977632  0.08241317  0.51051152     0.16300
H61         H  0.74050066  0.98335218  0.46250197     0.29600
H62         H  0.74094747  0.98336368  0.50646588     0.29600
N63         N  0.93053063  0.73374670  0.41520451     0.00000
C64         C  0.92539887  0.71450600  0.39726470     0.02600
C65         C  0.90485929  0.72148872  0.38095045    -0.20300
C66         C  0.89668743  0.74589315  0.38895563    -0.20500
C67         C  0.91266833  0.75293063  0.40973600     0.02400
H68         H  0.89692384  0.71017184  0.36470952     0.16200
H69         H  0.88063525  0.75721938  0.38067570     0.16300
N70         N  0.93057490  0.73318655  0.55256878     0.00000
C71         C  0.92610357  0.71444121  0.57122780     0.02600
C72         C  0.90509508  0.72112938  0.58705830    -0.20300
C73         C  0.89593240  0.74481249  0.57801534    -0.20500
C74         C  0.91178876  0.75174052  0.55709923     0.02400
H75         H  0.89745577  0.71008065  0.60362831     0.16200
H76         H  0.87934407  0.75575061  0.58573891     0.16300
N77         N  0.06752401  0.73517341  0.41530686     0.00000
C78         C  0.07234985  0.71622717  0.39693997     0.02600
C79         C  0.09357749  0.72287490  0.38138404    -0.20300
C80         C  0.10249931  0.74670783  0.39033633    -0.20500
C81         C  0.08630762  0.75381143  0.41093936     0.02400
H82         H  0.10159884  0.71164990  0.36512159     0.16200
H83         H  0.11922256  0.75758555  0.38281936     0.16300
N84         N  0.06772576  0.73437949  0.55234858     0.00000
C85         C  0.07319293  0.71488566  0.56993868     0.02600
C86         C  0.09463895  0.72125617  0.58529633    -0.20300
C87         C  0.10305368  0.74549988  0.57702849    -0.20500
C88         C  0.08633104  0.75310370  0.55704048     0.02400
H89         H  0.10308943  0.70960182  0.60103333     0.16200
H90         H  0.11977330  0.75634185  0.58459839     0.16300
N91         N  0.95827482  0.73549712  0.48389133    -0.33200
N92         N  0.99900837  0.73396021  0.44296730    -0.53700
N93         N  0.03974955  0.73653069  0.48388275    -0.33200
N94         N  0.99911881  0.73341433  0.52480850    -0.53700
C95         C  0.94309587  0.73125753  0.46224919     0.30400
C96         C  0.94314536  0.73098240  0.50550819     0.30400
C97         C  0.05494273  0.73244866  0.46224153     0.30400
C98         C  0.05499881  0.73218315  0.50543380     0.30400
C99         C  0.97752943  0.73681565  0.42732432     0.39000
C100        C  0.02041905  0.73740080  0.42734520     0.39000
C101        C  0.97764243  0.73622636  0.54047163     0.39000
C102        C  0.02055469  0.73672573  0.54043655     0.39000
C103        C  0.91793401  0.72439401  0.47025031    -0.18500
C104        C  0.91797085  0.72418847  0.49745124    -0.18500
C105        C  0.08018651  0.72580625  0.47018121    -0.18500
C106        C  0.08022452  0.72565070  0.49735142    -0.18500
C107        C  0.98536967  0.74181020  0.40166719    -0.19500
C108        C  0.01246401  0.74220841  0.40168547    -0.19500
C109        C  0.98553274  0.74111017  0.56614333    -0.19500
C110        C  0.01263658  0.74138262  0.56612419    -0.19500
C111        C  0.95086888  0.73407414  0.43541329    -0.14900
C112        C  0.95094901  0.73356023  0.53237499    -0.14900
C113        C  0.04726224  0.73466704  0.53227514    -0.14900
C114        C  0.04713633  0.73525213  0.43544939    -0.14900
H115        H  0.90125285  0.71990720  0.45776611     0.18000
H116        H  0.90131160  0.71950178  0.50989425     0.18000
H117        H  0.09688874  0.72143630  0.45768222     0.18000
H118        H  0.09696054  0.72114574  0.50975465     0.18000
H119        H  0.97286541  0.74486384  0.38467372     0.16300
H120        H  0.02489079  0.74562708  0.38470316     0.16300
H121        H  0.97306244  0.74417584  0.58315921     0.16300
H122        H  0.02509989  0.74466309  0.58310477     0.16300
H123        H  0.97707203  0.74339812  0.48393319     0.29600
H124        H  0.02088124  0.74428023  0.48394838     0.29600
N125        N  0.25033433  0.91492309  0.41541301     0.00000
C126        C  0.23117539  0.89685585  0.41039451     0.02600
C127        C  0.23787661  0.88111429  0.38930558    -0.20300
C128        C  0.26202331  0.88957912  0.38074810    -0.20500
C129        C  0.26925025  0.91009188  0.39700870     0.02400
H130        H  0.22653818  0.86497263  0.38121762     0.16200
H131        H  0.27305802  0.88176116  0.36425757     0.16300
N132        N  0.25037195  0.91503959  0.55274222     0.00000
C133        C  0.26975053  0.91003638  0.57057879     0.02600
C134        C  0.26282610  0.88960860  0.58707539    -0.20300
C135        C  0.23836260  0.88137685  0.57925358    -0.20500
C136        C  0.23119433  0.89718766  0.55836722     0.02400
H137        H  0.27424930  0.88173492  0.60327178     0.16200
H138        H  0.22711262  0.86535025  0.58769364     0.16300
N139        N  0.25084385  0.05212526  0.41581759     0.00000
C140        C  0.23225219  0.07098403  0.41149203     0.02600
C141        C  0.24015387  0.08807208  0.39191367    -0.20300
C142        C  0.26442705  0.07965804  0.38363393    -0.20500
C143        C  0.27055278  0.05780518  0.39854013     0.02400
H144        H  0.22950340  0.10504787  0.38463449     0.16200
H145        H  0.27625643  0.08839484  0.36818929     0.16300
N146        N  0.25057755  0.05214829  0.55235161     0.00000
C147        C  0.27022566  0.05760326  0.56976025     0.02600
C148        C  0.26425922  0.07950049  0.58465421    -0.20300
C149        C  0.24014350  0.08819436  0.57623448    -0.20500
C150        C  0.23218677  0.07122218  0.55658582     0.02400
H151        H  0.27611325  0.08811252  0.60014472     0.16200
H152        H  0.22965028  0.10529619  0.58344438     0.16300
N153        N  0.24883121  0.02408469  0.48406490    -0.33200
N154        N  0.25066002  0.98347443  0.52493685    -0.53700
N155        N  0.24839670  0.94265547  0.48404268    -0.33200
N156        N  0.25111895  0.98342153  0.44316408    -0.53700
C157        C  0.25333287  0.03923347  0.50563349     0.30400
C158        C  0.25350585  0.03920955  0.46251757     0.30400
C159        C  0.25250806  0.92744707  0.50568310     0.30400
C160        C  0.25263226  0.92742040  0.46244825     0.30400
C161        C  0.24763463  0.00495409  0.54056450     0.39000
C162        C  0.24754872  0.96203758  0.54058870     0.39000
C163        C  0.24814430  0.00491612  0.42754164     0.39000
C164        C  0.24802103  0.96199986  0.42748812     0.39000
C165        C  0.26064768  0.06428965  0.49765994    -0.18500
C166        C  0.26074699  0.06427717  0.47051265    -0.18500
C167        C  0.25897389  0.90215500  0.49770268    -0.18500
C168        C  0.25905316  0.90213819  0.47050461    -0.18500
C169        C  0.24285168  0.99710277  0.56625031    -0.19500
C170        C  0.24279645  0.96997924  0.56627025    -0.19500
C171        C  0.24346893  0.99709570  0.40183163    -0.19500
C172        C  0.24336330  0.96997638  0.40179609    -0.19500
C173        C  0.25020184  0.03161251  0.53239193    -0.14900
C174        C  0.25055199  0.03157234  0.43575087    -0.14900
C175        C  0.25021312  0.93526799  0.43560225    -0.14900
C176        C  0.24995397  0.93532497  0.53250377    -0.14900
H177        H  0.26544429  0.08090765  0.51012094     0.18000
H178        H  0.26562950  0.08088389  0.45806314     0.18000
H179        H  0.26328758  0.88542378  0.51019628     0.18000
H180        H  0.26344996  0.88539353  0.45806242     0.18000
H181        H  0.23979775  0.00962259  0.58323635     0.16300
H182        H  0.23965491  0.95752161  0.58328928     0.16300
H183        H  0.24045199  0.00963473  0.38484979     0.16300
H184        H  0.24019414  0.95755324  0.38476329     0.16300
H185        H  0.24047089  0.00546678  0.48402791     0.29600
H186        H  0.24080136  0.96158603  0.48400739     0.29600
N187        N  0.43100434  0.91529954  0.23259166     0.00000
C188        C  0.41179682  0.91134486  0.25089031     0.02600
C189        C  0.39460969  0.89189591  0.24295060    -0.20300
C190        C  0.40335082  0.88322536  0.21894019    -0.20500
C191        C  0.42547174  0.89779570  0.21304434     0.02400
H192        H  0.37743373  0.88488318  0.25345450     0.16200
H193        H  0.39471306  0.86767813  0.20717902     0.16300
N194        N  0.56830001  0.91508079  0.23402766     0.00000
C195        C  0.57359542  0.89734752  0.21461257     0.02600
C196        C  0.59471845  0.88164757  0.22124329    -0.20300
C197        C  0.60309187  0.88987153  0.24554673    -0.20500
C198        C  0.58667821  0.91019125  0.25293906     0.02400
H199        H  0.60299608  0.86573246  0.20971549     0.16200
H200        H  0.61960678  0.88207381  0.25654475     0.16300
N201        N  0.43134927  0.05199735  0.23328851     0.00000
C202        C  0.42632481  0.06994937  0.21399234     0.02600
C203        C  0.40529997  0.08575798  0.22068135    -0.20300
C204        C  0.39673949  0.07738196  0.24488583    -0.20500
C205        C  0.41293788  0.05685456  0.25217784     0.02400
H206        H  0.39722054  0.10185877  0.20926948     0.16200
H207        H  0.38028297  0.08526569  0.25591018     0.16300
N208        N  0.56813043  0.05226827  0.23457943     0.00000
C209        C  0.57246174  0.07087151  0.21572426     0.02600
C210        C  0.59266588  0.08750477  0.22291897    -0.20300
C211        C  0.60148287  0.07896936  0.24696019    -0.20500
C212        C  0.58625166  0.05751776  0.25364601     0.02400
H213        H  0.60012903  0.10415119  0.21187456     0.16200
H214        H  0.61757926  0.08727117  0.25820490     0.16300
N215        N  0.45911825  0.98354758  0.23484063    -0.33200
N216        N  0.49975069  0.94267233  0.23296015    -0.53700
N217        N  0.54051562  0.98358183  0.23623329    -0.33200
N218        N  0.49981640  0.02439751  0.23359942    -0.53700
C219        C  0.44399772  0.96203077  0.23003899     0.30400
C220        C  0.44404466  0.00517205  0.23033779     0.30400
C221        C  0.55572522  0.96201603  0.23189585     0.30400
C222        C  0.55573908  0.00520733  0.23214594     0.30400
C223        C  0.47824497  0.92701124  0.23558951     0.39000
C224        C  0.52116521  0.92702501  0.23621396     0.39000
C225        C  0.47832799  0.03997037  0.23665401     0.39000
C226        C  0.52118612  0.04000175  0.23722009     0.39000
C227        C  0.41898604  0.97012240  0.22270627    -0.18500
C228        C  0.41901437  0.99727784  0.22291281    -0.18500
C229        C  0.58098566  0.97007252  0.22541708    -0.18500
C230        C  0.58098975  0.99724741  0.22557033    -0.18500
C231        C  0.48607016  0.90129991  0.24022556    -0.19500
C232        C  0.51318654  0.90130524  0.24062010    -0.19500
C233        C  0.48610390  0.06555347  0.24199521    -0.19500
C234        C  0.51319348  0.06557472  0.24236714    -0.19500
C235        C  0.45159578  0.93521759  0.23295652    -0.14900
C236        C  0.45172761  0.03190044  0.23361351    -0.14900
C237        C  0.54789422  0.03199145  0.23484384    -0.14900
C238        C  0.54789847  0.93518711  0.23428141    -0.14900
H239        H  0.40238373  0.95773429  0.21770560     0.18000
H240        H  0.40244697  0.00980293  0.21813216     0.18000
H241        H  0.59770660  0.95764663  0.22092441     0.18000
H242        H  0.59770478  0.00973905  0.22123733     0.18000
H243        H  0.47354130  0.88428534  0.24301176     0.16300
H244        H  0.52561497  0.88428279  0.24378191     0.16300
H245        H  0.47355747  0.08247557  0.24522967     0.16300
H246        H  0.52559149  0.08252716  0.24597753     0.16300
H247        H  0.47769931  0.98346390  0.24326093     0.29600
H248        H  0.52161660  0.98350995  0.24391365     0.29600
N249        N  0.43137608  0.73373774  0.91549360     0.00000
C250        C  0.41263201  0.71512578  0.91089677     0.02600
C251        C  0.39588228  0.72282647  0.89096710    -0.20300
C252        C  0.40440984  0.74702059  0.88265875    -0.20500
C253        C  0.42595713  0.75326376  0.89792645     0.02400
H254        H  0.37907275  0.71208072  0.88346026     0.16200
H255        H  0.39597110  0.75871926  0.86694837     0.16300
N256        N  0.56850590  0.73389084  0.91522651     0.00000
C257        C  0.57310363  0.75264518  0.89659791     0.02600
C258        C  0.59393606  0.74572426  0.88063138    -0.20300
C259        C  0.60283714  0.72188762  0.88954552    -0.20500
C260        C  0.58700994  0.71509270  0.91052788     0.02400
H261        H  0.60161977  0.75671565  0.86404403     0.16200
H262        H  0.61923421  0.71075707  0.88168890     0.16300
N263        N  0.43152210  0.73291678  0.05242064     0.00000
C264        C  0.41246573  0.71450827  0.05657292     0.02600
C265        C  0.39607071  0.72184072  0.07692990    -0.20300
C266        C  0.40514675  0.74558110  0.08596133    -0.20500
C267        C  0.42666895  0.75194143  0.07069396     0.02400
H268        H  0.37913421  0.71116003  0.08424916     0.16200
H269        H  0.39704081  0.75692531  0.10209819     0.16300
N270        N  0.56857232  0.73337560  0.05264496     0.00000
C271        C  0.57370785  0.75248286  0.07073856     0.02600
C272        C  0.59418793  0.74532681  0.08705453    -0.20300
C273        C  0.60231622  0.72095649  0.07890087    -0.20500
C274        C  0.58637450  0.71410431  0.05802819     0.02400
H275        H  0.60212696  0.75651685  0.10338155     0.16200
H276        H  0.61831734  0.70953143  0.08714427     0.16300
N277        N  0.54084469  0.73174660  0.98393288    -0.33200
N278        N  0.50010153  0.73369704  0.02484244    -0.53700
N279        N  0.45937023  0.73147700  0.98391127    -0.33200
N280        N  0.50000273  0.73422281  0.94300715    -0.53700
C281        C  0.55604959  0.73590629  0.00557476     0.30400
C282        C  0.55600151  0.73614411  0.96230920     0.30400
C283        C  0.44421658  0.73572578  0.00554273     0.30400
C284        C  0.44417520  0.73601709  0.96236474     0.30400
C285        C  0.52155183  0.73065947  0.04049251     0.39000
C286        C  0.47865365  0.73038906  0.04044835     0.39000
C287        C  0.52145138  0.73118865  0.92735389     0.39000
C288        C  0.47854451  0.73107385  0.92737604     0.39000
C289        C  0.58126009  0.74258357  0.99756306    -0.18500
C290        C  0.58122583  0.74275727  0.97035819    -0.18500
C291        C  0.41906303  0.74270133  0.99760152    -0.18500
C292        C  0.41903492  0.74287346  0.97043591    -0.18500
C293        C  0.51365402  0.72568552  0.06613779    -0.19500
C294        C  0.48655500  0.72548942  0.06610384    -0.19500
C295        C  0.51352494  0.72633572  0.90168668    -0.19500
C296        C  0.48642100  0.72630619  0.90169813    -0.19500
C297        C  0.54824235  0.73319774  0.03241847    -0.14900
C298        C  0.54816051  0.73364683  0.93544354    -0.14900
C299        C  0.45186256  0.73337344  0.93553691    -0.14900
C300        C  0.45195853  0.73274558  0.03232658    -0.14900
H301        H  0.59796856  0.74698117  0.01004239     0.18000
H302        H  0.59791273  0.74732166  0.95790633     0.18000
H303        H  0.40241104  0.74726850  0.01009669     0.18000
H304        H  0.40235994  0.74758534  0.95802693     0.18000
H305        H  0.52612234  0.72250382  0.08313386     0.16300
H306        H  0.47408771  0.72214400  0.08307114     0.16300
H307        H  0.52597252  0.72313295  0.88467915     0.16300
H308        H  0.47392979  0.72311352  0.88472135     0.16300
H309        H  0.52198431  0.72399255  0.98389455     0.29600
H310        H  0.47812927  0.72345845  0.98385062     0.29600
N311        N  0.43076272  0.91537558  0.73429753     0.00000
C312        C  0.41245444  0.91075041  0.71527442     0.02600
C313        C  0.39550612  0.89087073  0.72265380    -0.20300
C314        C  0.40353659  0.88256911  0.74704039    -0.20500
C315        C  0.42498375  0.89780658  0.75369973     0.02400
H316        H  0.37893828  0.88335201  0.71154449     0.16200
H317        H  0.39490368  0.86682140  0.75854230     0.16300
N318        N  0.56801146  0.91496288  0.73300080     0.00000
C319        C  0.57257154  0.89628056  0.75169313     0.02600
C320        C  0.59324209  0.88017515  0.74463760    -0.20300
C321        C  0.60206626  0.88904513  0.72074290    -0.20500
C322        C  0.58635863  0.91014270  0.71404200     0.02400
H323        H  0.60091801  0.86358042  0.75561370     0.16200
H324        H  0.61840280  0.88114056  0.70955297     0.16300
N325        N  0.43125160  0.05226188  0.73356299     0.00000
C326        C  0.42674228  0.07103679  0.75217911     0.02600
C327        C  0.40665246  0.08763467  0.74458677    -0.20300
C328        C  0.39820271  0.07897365  0.72045734    -0.20500
C329        C  0.41353213  0.05748613  0.71414055     0.02400
H330        H  0.39913979  0.10444143  0.75534580     0.16200
H331        H  0.38238342  0.08730503  0.70884513     0.16300
N332        N  0.56768319  0.05241845  0.73260573     0.00000
C333        C  0.57171677  0.07132505  0.75119798     0.02600
C334        C  0.59090086  0.08883013  0.74329410    -0.20300
C335        C  0.59929447  0.08060829  0.71899790    -0.20500
C336        C  0.58481583  0.05847686  0.71289965     0.02400
H337        H  0.59788750  0.10589967  0.75399218     0.16200
H338        H  0.61458862  0.08960179  0.70717181     0.16300
N339        N  0.49951812  0.94286531  0.73552396    -0.33200
N340        N  0.45870414  0.98367943  0.73359134    -0.53700
N341        N  0.49956593  0.02427219  0.73477178    -0.33200
N342        N  0.54042796  0.98360340  0.73224581    -0.53700
C343        C  0.47783224  0.92768192  0.73160853     0.30400
C344        C  0.52103494  0.92762724  0.73099871     0.30400
C345        C  0.47796542  0.03940380  0.73040169     0.30400
C346        C  0.52105467  0.03937925  0.72986701     0.30400
C347        C  0.44309245  0.96228795  0.73705360     0.39000
C348        C  0.44315505  0.00517532  0.73677044     0.39000
C349        C  0.55607281  0.96215522  0.73534482     0.39000
C350        C  0.55605685  0.00510597  0.73512755     0.39000
C351        C  0.48570192  0.90241590  0.72495043    -0.18500
C352        C  0.51287329  0.90238387  0.72454010    -0.18500
C353        C  0.48585686  0.06442894  0.72291071    -0.18500
C354        C  0.51298586  0.06441716  0.72257716    -0.18500
C355        C  0.41752512  0.97027406  0.74220832    -0.19500
C356        C  0.41756968  0.99738484  0.74202490    -0.19500
C357        C  0.58176118  0.97012922  0.73990298    -0.19500
C358        C  0.58174968  0.99726301  0.73973580    -0.19500
C359        C  0.45107652  0.93557426  0.73451538    -0.14900
C360        C  0.54790622  0.93540845  0.73325972    -0.14900
C361        C  0.54783117  0.03177933  0.73275614    -0.14900
C362        C  0.45126385  0.03179431  0.73386067    -0.14900
H363        H  0.47314894  0.88571532  0.72073267     0.18000
H364        H  0.52522592  0.88564004  0.71992259     0.18000
H365        H  0.47334992  0.08103015  0.71819019     0.18000
H366        H  0.52537529  0.08101408  0.71754103     0.18000
H367        H  0.40055859  0.95785696  0.74567826     0.16300
H368        H  0.40066059  0.00993645  0.74529041     0.16300
H369        H  0.59877331  0.95769378  0.74306172     0.16300
H370        H  0.59873060  0.00979549  0.74268137     0.16300
H371        H  0.49966839  0.96176459  0.74321174     0.29600
H372        H  0.49968628  0.00569298  0.74323156     0.29600
N373        N  0.43202248  0.23380283  0.91580227     0.00000
C374        C  0.41341484  0.25256529  0.91115181     0.02600
C375        C  0.39702104  0.24513401  0.89082387    -0.20300
C376        C  0.40562732  0.22098476  0.88237700    -0.20500
C377        C  0.42689545  0.21445690  0.89792635     0.02400
H378        H  0.38037288  0.25601278  0.88314824     0.16200
H379        H  0.39739627  0.20948979  0.86641315     0.16300
N380        N  0.56894041  0.23252118  0.91567206     0.00000
C381        C  0.58688248  0.25169495  0.91033485     0.02600
C382        C  0.60300011  0.24448915  0.88970691    -0.20300
C383        C  0.59481992  0.22003878  0.88172060    -0.20500
C384        C  0.57410325  0.21314226  0.89785890     0.02400
H385        H  0.61911106  0.25575781  0.88146437     0.16200
H386        H  0.60284960  0.20865867  0.86556972     0.16300
N387        N  0.43213196  0.23429665  0.05267892     0.00000
C388        C  0.41363271  0.25312699  0.05752064     0.02600
C389        C  0.39737832  0.24566473  0.07796076    -0.20300
C390        C  0.40593295  0.22141826  0.08622325    -0.20500
C391        C  0.42703111  0.21485438  0.07045382     0.02400
H392        H  0.38078219  0.25653599  0.08575969     0.16200
H393        H  0.39770949  0.20983559  0.10213222     0.16300
N394        N  0.56907035  0.23339022  0.05281857     0.00000
C395        C  0.58698191  0.25264314  0.05797571     0.02600
C396        C  0.60286340  0.24581226  0.07891622    -0.20300
C397        C  0.59461845  0.22148555  0.08723140    -0.20500
C398        C  0.57409724  0.21429738  0.07097284     0.02400
H399        H  0.61895516  0.25717862  0.08705577     0.16200
H400        H  0.60257268  0.21031882  0.10356893     0.16300
N401        N  0.45989767  0.23598009  0.98421876    -0.33200
N402        N  0.50060903  0.23334831  0.02510799    -0.53700
N403        N  0.54130669  0.23472846  0.98425093    -0.33200
N404        N  0.50051082  0.23281709  0.94338965    -0.53700
C405        C  0.44475466  0.23164125  0.00582884     0.30400
C406        C  0.44471696  0.23141279  0.96268016     0.30400
C407        C  0.55651536  0.23060470  0.00586818     0.30400
C408        C  0.55645693  0.23029328  0.96265782     0.30400
C409        C  0.47919555  0.23682983  0.04070333     0.39000
C410        C  0.52207347  0.23625721  0.04074851     0.39000
C411        C  0.47911897  0.23624769  0.92775389     0.39000
C412        C  0.52198303  0.23563109  0.92774544     0.39000
C413        C  0.41961267  0.22462628  0.99790051    -0.18500
C414        C  0.41958870  0.22448279  0.97073318    -0.18500
C415        C  0.58172241  0.22387034  0.99787913    -0.18500
C416        C  0.58168551  0.22367197  0.97068274    -0.18500
C417        C  0.48711550  0.24167983  0.06635981    -0.19500
C418        C  0.51421469  0.24132209  0.06638970    -0.19500
C419        C  0.48706114  0.24098633  0.90208500    -0.19500
C420        C  0.51415563  0.24058791  0.90207664    -0.19500
C421        C  0.45251171  0.23457121  0.03258054    -0.14900
C422        C  0.45243733  0.23407761  0.93588026    -0.14900
C423        C  0.54862545  0.23289645  0.93584440    -0.14900
C424        C  0.54873217  0.23352364  0.03265806    -0.14900
H425        H  0.40298150  0.22000976  0.01040906     0.18000
H426        H  0.40293697  0.21973264  0.95830866     0.18000
H427        H  0.59844321  0.21952824  0.01036376     0.18000
H428        H  0.59837868  0.21915753  0.95822022     0.18000
H429        H  0.47465609  0.24507884  0.08332286     0.16300
H430        H  0.52670640  0.24442923  0.08338134     0.16300
H431        H  0.47462181  0.24434493  0.88510188     0.16300
H432        H  0.52667125  0.24360646  0.88508243     0.16300
H433        H  0.47862274  0.24409062  0.98416864     0.29600
H434        H  0.52248209  0.24255332  0.98420613     0.29600
N435        N  0.24922413  0.41555768  0.91522882     0.00000
C436        C  0.22963021  0.41012943  0.89775479     0.02600
C437        C  0.23572553  0.38837593  0.88270431    -0.20300
C438        C  0.25987500  0.37974522  0.89108982    -0.20500
C439        C  0.26772037  0.39661832  0.91087071     0.02400
H440        H  0.22393884  0.37982628  0.86712772     0.16200
H441        H  0.27046859  0.36275598  0.88376137     0.16300
N442        N  0.24902858  0.55261766  0.91503165     0.00000
C443        C  0.26820776  0.57045993  0.90940086     0.02600
C444        C  0.26098943  0.58633484  0.88858150    -0.20300
C445        C  0.23649240  0.57814536  0.88081170    -0.20500
C446        C  0.22960143  0.55767918  0.89727435     0.02400
H447        H  0.27222352  0.60238199  0.88015962     0.16200
H448        H  0.22502845  0.58606923  0.86466925     0.16300
N449        N  0.24832376  0.41548090  0.05179889     0.00000
C450        C  0.26691628  0.39661730  0.05609627     0.02600
C451        C  0.25908464  0.37958794  0.07575239    -0.20300
C452        C  0.23485388  0.38804392  0.08411296    -0.20500
C453        C  0.22867739  0.40985797  0.06917005     0.02400
H454        H  0.26975513  0.36262593  0.08303414     0.16200
H455        H  0.22307812  0.37934942  0.09962244     0.16300
N456        N  0.24878959  0.55270186  0.05228719     0.00000
C457        C  0.26792392  0.57079186  0.05733097     0.02600
C458        C  0.26111602  0.58659191  0.07834456    -0.20300
C459        C  0.23692625  0.57814834  0.08681188    -0.20500
C460        C  0.22977953  0.55758695  0.07057604     0.02400
H461        H  0.27240262  0.60277263  0.08642704     0.16200
H462        H  0.22580507  0.58602187  0.10321756     0.16300
N463        N  0.25063594  0.44354489  0.98357810    -0.33200
N464        N  0.24805188  0.48420787  0.02451342    -0.53700
N465        N  0.25086459  0.52497222  0.98369055    -0.33200
N466        N  0.24891250  0.48416736  0.94275970    -0.53700
C467        C  0.24581078  0.42842186  0.00509275     0.30400
C468        C  0.24627841  0.42839918  0.96197370     0.30400
C469        C  0.24652854  0.54019250  0.00527064     0.30400
C470        C  0.24675766  0.54017186  0.96204996     0.30400
C471        C  0.25102027  0.46270141  0.04011850     0.39000
C472        C  0.25114515  0.50561908  0.04020836     0.39000
C473        C  0.25206072  0.46272148  0.92711279     0.39000
C474        C  0.25198473  0.50563101  0.92714067     0.39000
C475        C  0.23861781  0.40335638  0.99704177    -0.18500
C476        C  0.23891637  0.40334131  0.96989201    -0.18500
C477        C  0.24003385  0.56545293  0.99720979    -0.18500
C478        C  0.24017642  0.56543915  0.97001478    -0.18500
C479        C  0.25568781  0.47050612  0.06583738    -0.19500
C480        C  0.25579006  0.49762741  0.06589567    -0.19500
C481        C  0.25688235  0.47062041  0.90144899    -0.19500
C482        C  0.25682906  0.49774177  0.90146151    -0.19500
C483        C  0.24862748  0.43604921  0.03188145    -0.14900
C484        C  0.24952713  0.43604972  0.93523614    -0.14900
C485        C  0.24945192  0.53232054  0.93524477    -0.14900
C486        C  0.24895021  0.53235309  0.03210708    -0.14900
H487        H  0.23364427  0.38675106  0.00945703     0.18000
H488        H  0.23420265  0.38672861  0.95739195     0.18000
H489        H  0.23555887  0.58218125  0.00964630     0.18000
H490        H  0.23584588  0.58215920  0.95751204     0.18000
H491        H  0.25870807  0.45795580  0.08281006     0.16300
H492        H  0.25894697  0.51004290  0.08293681     0.16300
H493        H  0.26001712  0.45813372  0.88445329     0.16300
H494        H  0.25995250  0.51023415  0.88446454     0.16300
H495        H  0.25899574  0.46216456  0.98368017     0.29600
H496        H  0.25854532  0.50607479  0.98374007     0.29600
N497        N  0.93204471  0.41514208  0.73523349     0.00000
C498        C  0.92774661  0.39650874  0.71642073     0.02600
C499        C  0.90806573  0.37940306  0.72396058    -0.20300
C500        C  0.89957399  0.38764148  0.74821454    -0.20500
C501        C  0.91449291  0.40937918  0.75465904     0.02400
H502        H  0.90079578  0.36259500  0.71303940     0.16200
H503        H  0.88392068  0.37893157  0.75977924     0.16300
N504        N  0.93144075  0.55250732  0.73443574     0.00000
C505        C  0.92671660  0.57088742  0.71548252     0.02600
C506        C  0.90556159  0.58656067  0.72206224    -0.20300
C507        C  0.89656304  0.57768817  0.74588958    -0.20500
C508        C  0.91264943  0.55702418  0.75302290     0.02400
H509        H  0.89768849  0.60288852  0.71082843     0.16200
H510        H  0.87988688  0.58531828  0.75676396     0.16300
N511        N  0.06865342  0.41565351  0.73364535     0.00000
C512        C  0.08701418  0.41081017  0.75255652     0.02600
C513        C  0.10315118  0.39018803  0.74542092    -0.20300
C514        C  0.09457565  0.38170148  0.72127324    -0.20500
C515        C  0.07360453  0.39754288  0.71449009     0.02400
H516        H  0.11954948  0.38229528  0.75652378     0.16200
H517        H  0.10257023  0.36547163  0.70998816     0.16300
N518        N  0.06875218  0.55238104  0.73354132     0.00000
C519        C  0.08735756  0.55671234  0.75233454     0.02600
C520        C  0.10472918  0.57608662  0.74460868    -0.20300
C521        C  0.09670286  0.58432724  0.72020057    -0.20500
C522        C  0.07483249  0.56955627  0.71387870     0.02400
H523        H  0.12159003  0.58328264  0.75548773     0.16200
H524        H  0.10564618  0.59971027  0.70844532     0.16300
N525        N  0.95937122  0.48398197  0.73668651    -0.33200
N526        N  0.00019687  0.44321704  0.73411067    -0.53700
N527        N  0.04078362  0.48409085  0.73531682    -0.33200
N528        N  0.00004582  0.52494701  0.73341090    -0.53700
C529        C  0.94422697  0.46229066  0.73262727     0.30400
C530        C  0.94411707  0.50551304  0.73226759     0.30400
C531        C  0.05591653  0.46250752  0.73079572     0.30400
C532        C  0.05587615  0.50565440  0.73065688     0.30400
C533        C  0.97887036  0.42760292  0.73787757     0.39000
C534        C  0.02170130  0.42766959  0.73714962     0.39000
C535        C  0.97860906  0.54055128  0.73676672     0.39000
C536        C  0.02153890  0.54058712  0.73627137     0.39000
C537        C  0.91896946  0.47016355  0.72598822    -0.18500
C538        C  0.91890289  0.49735276  0.72573000    -0.18500
C539        C  0.08096513  0.47048521  0.72351169    -0.18500
C540        C  0.08094564  0.49764742  0.72343217    -0.18500
C541        C  0.98690228  0.40206074  0.74312845    -0.19500
C542        C  0.01398033  0.40210410  0.74264914    -0.19500
C543        C  0.98657770  0.56622178  0.74148720    -0.19500
C544        C  0.01369602  0.56624427  0.74114288    -0.19500
C545        C  0.95216184  0.43552888  0.73542577    -0.14900
C546        C  0.95187169  0.53238578  0.73469361    -0.14900
C547        C  0.04820308  0.53243034  0.73366192    -0.14900
C548        C  0.04826875  0.43574909  0.73397698    -0.14900
H549        H  0.90230056  0.45760093  0.72168817     0.18000
H550        H  0.90215683  0.50971673  0.72116379     0.18000
H551        H  0.09758344  0.45801157  0.71877429     0.18000
H552        H  0.09755285  0.51009909  0.71859811     0.18000
H553        H  0.97453675  0.38510549  0.74684495     0.16300
H554        H  0.02655396  0.38520837  0.74591684     0.16300
H555        H  0.97414619  0.58320175  0.74484991     0.16300
H556        H  0.02622047  0.58322562  0.74414330     0.16300
H557        H  0.97824730  0.48410747  0.74442103     0.29600
H558        H  0.02216796  0.48413262  0.74366188     0.29600
N559        N  0.74907147  0.41530827  0.91515719     0.00000
C560        C  0.73031578  0.39672047  0.91057414     0.02600
C561        C  0.73780805  0.37997742  0.89055593    -0.20300
C562        C  0.76201905  0.38837185  0.88217302    -0.20500
C563        C  0.76847245  0.40982979  0.89749513     0.02400
H564        H  0.72691320  0.36326525  0.88303634     0.16200
H565        H  0.77358687  0.37990521  0.86638418     0.16300
N566        N  0.74840220  0.55233665  0.91477379     0.00000
C567        C  0.76695499  0.55666317  0.89589362     0.02600
C568        C  0.75965806  0.57696230  0.87940309    -0.20300
C569        C  0.73578503  0.58580887  0.88824646    -0.20500
C570        C  0.72935037  0.57047577  0.90971022     0.02400
H571        H  0.77045071  0.58435715  0.86255787     0.16200
H572        H  0.72442209  0.60188734  0.88006031     0.16300
N573        N  0.74947462  0.41533783  0.05196039     0.00000
C574        C  0.73094167  0.39640430  0.05610446     0.02600
C575        C  0.73828244  0.37982470  0.07631549    -0.20300
C576        C  0.76212697  0.38870002  0.08528168    -0.20500
C577        C  0.76855334  0.41029663  0.07012809     0.02400
H578        H  0.72748732  0.36296568  0.08365526     0.16200
H579        H  0.77344232  0.38047820  0.10137872     0.16300
N580        N  0.74883223  0.55235111  0.05241285     0.00000
C581        C  0.76765433  0.55720501  0.07089453     0.02600
C582        C  0.76003046  0.57716749  0.08764988    -0.20300
C583        C  0.73567205  0.58522867  0.07939890    -0.20500
C584        C  0.72927592  0.56977625  0.05801582     0.02400
H585        H  0.77089919  0.58479654  0.10433614     0.16200
H586        H  0.72394891  0.60086225  0.08793012     0.16300
N587        N  0.74698211  0.52477051  0.98361556    -0.33200
N588        N  0.74985420  0.48396683  0.02447588    -0.53700
N589        N  0.74761821  0.44326569  0.98356508    -0.33200
N590        N  0.74940474  0.48393005  0.94267831    -0.53700
C591        C  0.75112650  0.54001749  0.00523613     0.30400
C592        C  0.75091734  0.54000857  0.96194891     0.30400
C593        C  0.75224834  0.42813768  0.00513155     0.30400
C594        C  0.75206883  0.42812081  0.96196903     0.30400
C595        C  0.74659997  0.50536963  0.04014605     0.39000
C596        C  0.74676488  0.46247483  0.04007637     0.39000
C597        C  0.74588118  0.50535180  0.92708688     0.39000
C598        C  0.74615960  0.46243900  0.92710282     0.39000
C599        C  0.75730037  0.56535628  0.99717279    -0.18500
C600        C  0.75719494  0.56534630  0.96995243    -0.18500
C601        C  0.75940844  0.40304926  0.99710958    -0.18500
C602        C  0.75928984  0.40303817  0.96993860    -0.18500
C603        C  0.74171888  0.49738966  0.06579074    -0.19500
C604        C  0.74181196  0.47028904  0.06573990    -0.19500
C605        C  0.74061243  0.49737281  0.90151422    -0.19500
C606        C  0.74083080  0.47026119  0.90152305    -0.19500
C607        C  0.74880630  0.53210550  0.03210145    -0.14900
C608        C  0.74829695  0.53209538  0.93510477    -0.14900
C609        C  0.74889148  0.43578164  0.93520560    -0.14900
C610        C  0.74930484  0.43581788  0.03192472    -0.14900
H611        H  0.76153244  0.58213385  0.00962711     0.18000
H612        H  0.76133373  0.58212374  0.95746208     0.18000
H613        H  0.76422895  0.38642413  0.00955729     0.18000
H614        H  0.76398641  0.38640512  0.95745670     0.18000
H615        H  0.73837004  0.50979997  0.08279945     0.16300
H616        H  0.73858950  0.45776306  0.08269247     0.16300
H617        H  0.73696666  0.50979269  0.88457120     0.16300
H618        H  0.73743974  0.45772671  0.88461244     0.16300
H619        H  0.73955803  0.50577444  0.98365028     0.29600
H620        H  0.73931982  0.46190999  0.98360555     0.29600
N621        N  0.93155748  0.41552762  0.23324893     0.00000
C622        C  0.92716759  0.39686262  0.25204468     0.02600
C623        C  0.90702102  0.38022375  0.24470070    -0.20300
C624        C  0.89831856  0.38879793  0.22063078    -0.20500
C625        C  0.91355067  0.41028608  0.21406958     0.02400
H626        H  0.89953800  0.36352671  0.25565495     0.16200
H627        H  0.88230414  0.38048643  0.20927685     0.16300
N628        N  0.93133497  0.55278932  0.23366650     0.00000
C629        C  0.92615048  0.57051997  0.25311133     0.02600
C630        C  0.90513358  0.58637572  0.24651729    -0.20300
C631        C  0.89670674  0.57825741  0.22220203    -0.20500
C632        C  0.91298410  0.55784099  0.21477634     0.02400
H633        H  0.89695342  0.60231240  0.25808526     0.16200
H634        H  0.88022711  0.58616813  0.21123151     0.16300
N635        N  0.06835191  0.41590740  0.23490982     0.00000
C636        C  0.08681965  0.41112410  0.21606107     0.02600
C637        C  0.10316832  0.39075012  0.22344712    -0.20300
C638        C  0.09462841  0.38238265  0.24766485    -0.20500
C639        C  0.07346383  0.39804499  0.25426501     0.02400
H640        H  0.11967723  0.38293182  0.21245474     0.16200
H641        H  0.10278180  0.36634886  0.25911844     0.16300
N642        N  0.06856391  0.55258648  0.23503831     0.00000
C643        C  0.08769660  0.55651655  0.21666591     0.02600
C644        C  0.10487861  0.57601901  0.22448059    -0.20300
C645        C  0.09619525  0.58476102  0.24848742    -0.20500
C646        C  0.07411628  0.57017394  0.25450260     0.02400
H647        H  0.12199921  0.58303411  0.21388826     0.16200
H648        H  0.10483432  0.60037400  0.26015989     0.16300
N649        N  0.95911609  0.48424036  0.23145230    -0.33200
N650        N  0.99984921  0.52517378  0.23467940    -0.53700
N651        N  0.04050280  0.48430781  0.23314285    -0.33200
N652        N  0.99984994  0.44343477  0.23443514    -0.53700
C653        C  0.94388612  0.50581610  0.23570798     0.30400
C654        C  0.94390746  0.46261323  0.23560087     0.30400
C655        C  0.05560777  0.50585927  0.23783393     0.30400
C656        C  0.05559469  0.46271581  0.23773258     0.30400
C657        C  0.97843927  0.54079959  0.23131434     0.39000
C658        C  0.02135220  0.54082690  0.23200576     0.39000
C659        C  0.97850247  0.42780575  0.23080916     0.39000
C660        C  0.02135439  0.42785875  0.23151118     0.39000
C661        C  0.91862283  0.49776008  0.24216756    -0.18500
C662        C  0.91863885  0.47058201  0.24209763    -0.18500
C663        C  0.08062963  0.49782197  0.24519042    -0.18500
C664        C  0.08062235  0.47066538  0.24511068    -0.18500
C665        C  0.98641696  0.56649658  0.22677414    -0.19500
C666        C  0.01353184  0.56650890  0.22720398    -0.19500
C667        C  0.98652511  0.40221458  0.22579153    -0.19500
C668        C  0.01361161  0.40224887  0.22625593    -0.19500
C669        C  0.95171052  0.53265097  0.23331142    -0.14900
C670        C  0.95178503  0.43581455  0.23305747    -0.14900
C671        C  0.04794004  0.43596687  0.23454951    -0.14900
C672        C  0.04799246  0.53265168  0.23476671    -0.14900
H673        H  0.90188976  0.51018848  0.24660723     0.18000
H674        H  0.90192977  0.45809234  0.24645846     0.18000
H675        H  0.09722878  0.51024716  0.25010884     0.18000
H676        H  0.09720635  0.45817723  0.24993014     0.18000
H677        H  0.97398737  0.58349913  0.22350994     0.16300
H678        H  0.02606287  0.58351074  0.22434927     0.16300
H679        H  0.97415077  0.38524102  0.22220055     0.16300
H680        H  0.02617730  0.38532133  0.22312597     0.16300
H681        H  0.97803252  0.48429074  0.22381348     0.29600
H682        H  0.02192266  0.48433895  0.22472521     0.29600
N683        N  0.93049779  0.23379315  0.41507297     0.00000
C684        C  0.92578623  0.25257307  0.39651656     0.02600
C685        C  0.90573518  0.24499221  0.37985535    -0.20300
C686        C  0.89750098  0.22070303  0.38828376    -0.20500
C687        C  0.91292320  0.21428813  0.40969376     0.02400
H688        H  0.89810487  0.25586517  0.36316862     0.16200
H689        H  0.88173731  0.20907136  0.37988010     0.16300
N690        N  0.93069493  0.23476432  0.55230633     0.00000
C691        C  0.92583855  0.25372660  0.57064452     0.02600
C692        C  0.90562098  0.24632989  0.58719018    -0.20300
C693        C  0.89745212  0.22196559  0.57894784    -0.20500
C694        C  0.91307664  0.21531309  0.55776069     0.02400
H695        H  0.89789646  0.25733810  0.60374334     0.16200
H696        H  0.88165887  0.21039377  0.58738499     0.16300
N697        N  0.06736590  0.23326276  0.41509711     0.00000
C698        C  0.07241776  0.25248400  0.39707966     0.02600
C699        C  0.09314766  0.24550708  0.38100084    -0.20300
C700        C  0.10148159  0.22118951  0.38928275    -0.20500
C701        C  0.08546535  0.21410613  0.41004377     0.02400
H702        H  0.10126003  0.25685564  0.36486747     0.16200
H703        H  0.11778709  0.21002500  0.38128689     0.16300
N704        N  0.06763113  0.23400143  0.55198394     0.00000
C705        C  0.07264767  0.25317978  0.57005780     0.02600
C706        C  0.09365202  0.24641119  0.58585758    -0.20300
C707        C  0.10219165  0.22224956  0.57738669    -0.20500
C708        C  0.08602388  0.21505569  0.55679208     0.02400
H709        H  0.10176499  0.25776597  0.60198174     0.16200
H710        H  0.11867434  0.21121957  0.58520302     0.16300
N711        N  0.99893330  0.23524079  0.44290458    -0.33200
N712        N  0.95812510  0.23385008  0.48366940    -0.53700
N713        N  0.99909304  0.23616768  0.52435243    -0.33200
N714        N  0.03981559  0.23307139  0.48359656    -0.53700
C715        C  0.97732559  0.23108401  0.42772076     0.30400
C716        C  0.02047605  0.23078019  0.42770345     0.30400
C717        C  0.97750759  0.23195258  0.53956540     0.30400
C718        C  0.02065914  0.23156309  0.53949448     0.30400
C719        C  0.94247187  0.23673730  0.46219435     0.39000
C720        C  0.94256231  0.23720487  0.50513870     0.39000
C721        C  0.05538622  0.23612321  0.46210235     0.39000
C722        C  0.05546946  0.23647542  0.50497286     0.39000
C723        C  0.98527817  0.22425806  0.40250095    -0.18500
C724        C  0.01243598  0.22408342  0.40248877    -0.18500
C725        C  0.98549169  0.22498471  0.56473183    -0.18500
C726        C  0.01265032  0.22474431  0.56468589    -0.18500
C727        C  0.91683861  0.24165362  0.47009512    -0.19500
C728        C  0.91689659  0.24195728  0.49723667    -0.19500
C729        C  0.08101315  0.24120705  0.46988930    -0.19500
C730        C  0.08106473  0.24143905  0.49699541    -0.19500
C731        C  0.95057068  0.23407864  0.43549757    -0.14900
C732        C  0.04725999  0.23346510  0.43546603    -0.14900
C733        C  0.04744186  0.23413622  0.53167303    -0.14900
C734        C  0.95073846  0.23492962  0.53184594    -0.14900
H735        H  0.97279872  0.21985268  0.38578834     0.18000
H736        H  0.02486451  0.21953896  0.38577173     0.18000
H737        H  0.97302482  0.22046484  0.58142795     0.18000
H738        H  0.02510316  0.22002122  0.58133316     0.18000
H739        H  0.89983983  0.24467373  0.45759918     0.16300
H740        H  0.89994417  0.24523354  0.50973396     0.16300
H741        H  0.09793850  0.24442787  0.45734177     0.16300
H742        H  0.09803976  0.24486834  0.50941331     0.16300
H743        H  0.99900237  0.24315248  0.46171318     0.29600
H744        H  0.99912005  0.24421281  0.50558326     0.29600
O745        O  0.97341514  0.30483140  0.34315690    -0.71000
O746        O  0.02573793  0.34342678  0.30543743    -0.71000
O747        O  0.02552865  0.30501297  0.34361525    -0.71100
O748        O  0.97366523  0.34318196  0.30489714    -0.71100
O749        O  0.97314553  0.37451589  0.33577209    -0.71100
O750        O  0.02520133  0.33570228  0.37513313    -0.71000
O751        O  0.02549974  0.37464004  0.33644231    -0.71000
O752        O  0.97278527  0.33566072  0.37453948    -0.71100
Ni753      Ni  0.99959836  0.32304331  0.32321463     1.25400
Ni754      Ni  0.99913883  0.35628502  0.35664575     1.25400
C755        C  0.96589822  0.31302257  0.36576489     0.91200
C756        C  0.03277416  0.36610980  0.31381900     0.91100
C757        C  0.03248387  0.31314569  0.36641403     0.91100
C758        C  0.96639367  0.36588133  0.31301359     0.91300
O759        O  0.85908950  0.16299538  0.45846983    -0.71000
O760        O  0.82142192  0.12445659  0.51084425    -0.71000
O761        O  0.85935123  0.16302625  0.51064446    -0.71100
O762        O  0.82109969  0.12447156  0.45873827    -0.71100
O763        O  0.85212717  0.09329750  0.45851648    -0.71100
O764        O  0.89095757  0.13243839  0.51055053    -0.71000
O765        O  0.85258166  0.09340659  0.51087230    -0.71000
O766        O  0.89056229  0.13227011  0.45810693    -0.71100
Ni767      Ni  0.83916200  0.14481665  0.48468466     1.25400
Ni768      Ni  0.87273100  0.11171425  0.48451028     1.25400
C769        C  0.88170240  0.15480612  0.45102196     0.91200
C770        C  0.82990306  0.10183988  0.51797217     0.91100
C771        C  0.88212428  0.15496781  0.51771507     0.91100
C772        C  0.82941506  0.10181012  0.45156939     0.91300
O773        O  0.17913193  0.12486422  0.45751762    -0.71000
O774        O  0.14068027  0.16327910  0.50953946    -0.71000
O775        O  0.17937478  0.12525559  0.50965861    -0.71100
O776        O  0.14041740  0.16286190  0.45739082    -0.71100
O777        O  0.10940021  0.13170023  0.45763503    -0.71100
O778        O  0.14880186  0.09365917  0.51020636    -0.71000
O779        O  0.10963489  0.13214696  0.51005493    -0.71000
O780        O  0.14862230  0.09320582  0.45780218    -0.71100
Ni781      Ni  0.16095649  0.14514475  0.48351252     1.25400
Ni782      Ni  0.12796544  0.11151176  0.48393780     1.25400
C783        C  0.17118024  0.10197997  0.45062466     0.91200
C784        C  0.11807149  0.15495030  0.51685947     0.91100
C785        C  0.17142960  0.10251008  0.51702588     0.91100
C786        C  0.11775516  0.15440216  0.45039319     0.91300
O787        O  0.85833304  0.51094988  0.16336208    -0.71000
O788        O  0.81949644  0.45886268  0.12552134    -0.71000
O789        O  0.85808321  0.45880057  0.16360253    -0.71100
O790        O  0.81982247  0.51098655  0.12529389    -0.71100
O791        O  0.85054141  0.51083891  0.09379212    -0.71100
O792        O  0.88914257  0.45838771  0.13244792    -0.71000
O793        O  0.85017204  0.45850051  0.09398811    -0.71000
O794        O  0.88945615  0.51076771  0.13226451    -0.71100
Ni795      Ni  0.83785799  0.48491336  0.14554334     1.25400
Ni796      Ni  0.87096951  0.48461537  0.11197078     1.25400
C797        C  0.88098893  0.51798387  0.15491937     0.91200
C798        C  0.82757464  0.45155607  0.10279601     0.91100
C799        C  0.88064337  0.45142850  0.15517387     0.91100
C800        C  0.82798979  0.51799663  0.10250712     0.91300
O801        O  0.14676416  0.45796402  0.09321608    -0.71000
O802        O  0.10892387  0.51028892  0.13298229    -0.71000
O803        O  0.14703853  0.51040311  0.09357629    -0.71100
O804        O  0.10864122  0.45791948  0.13267623    -0.71100
O805        O  0.14049813  0.45766164  0.16300251    -0.71100
O806        O  0.17836419  0.50989150  0.12445094    -0.71000
O807        O  0.14073507  0.50975991  0.16335904    -0.71000
O808        O  0.17812285  0.45775406  0.12405907    -0.71100
Ni809      Ni  0.12666686  0.48415570  0.11196210     1.25400
Ni810      Ni  0.16052212  0.48375309  0.14476272     1.25400
C811        C  0.16947853  0.45070514  0.10147480     0.91200
C812        C  0.11795765  0.51710074  0.15554835     0.91100
C813        C  0.16981058  0.51733060  0.10195712     0.91100
C814        C  0.11762318  0.45068723  0.15514503     0.91300
O815        O  0.64740090  0.37376142  0.95704437    -0.71000
O816        O  0.60927330  0.33484451  0.00971143    -0.71000
O817        O  0.64791764  0.37366971  0.00939690    -0.71100
O818        O  0.60882571  0.33487968  0.95724330    -0.71100
O819        O  0.64028888  0.30414712  0.95704717    -0.71100
O820        O  0.67881408  0.34237156  0.00898933    -0.71000
O821        O  0.64063643  0.30401300  0.00922936    -0.71000
O822        O  0.67838664  0.34254113  0.95689302    -0.71100
Ni823      Ni  0.62717980  0.35543206  0.98335664     1.25400
Ni824      Ni  0.66059757  0.32218458  0.98302491     1.25400
C825        C  0.67003516  0.36524527  0.94988999     0.91200
C826        C  0.61806347  0.31225882  0.01673814     0.91100
C827        C  0.67063032  0.36505633  0.01623529     0.91100
C828        C  0.61755609  0.31233115  0.94999994     0.91300
O829        O  0.88864542  0.50990311  0.83511055    -0.71000
O830        O  0.85033054  0.45759135  0.87409799    -0.71000
O831        O  0.88941453  0.45758292  0.83588609    -0.71100
O832        O  0.84955608  0.50988424  0.87332385    -0.71100
O833        O  0.81901916  0.50889340  0.84166300    -0.71100
O834        O  0.85849078  0.45677107  0.80459841    -0.71000
O835        O  0.81978724  0.45680098  0.84243450    -0.71000
O836        O  0.85775247  0.50888109  0.80379772    -0.71100
Ni837      Ni  0.87061830  0.48377667  0.85576001     1.25400
Ni838      Ni  0.83768348  0.48280779  0.82201260     1.25400
C839        C  0.88020310  0.51650364  0.81227217     0.91200
C840        C  0.82792341  0.45008975  0.86531602     0.91100
C841        C  0.88114631  0.45003422  0.81327840     0.91100
C842        C  0.82693828  0.51647715  0.86434952     0.91300
O843        O  0.02539567  0.30489240  0.62445382    -0.71000
O844        O  0.97375660  0.34324705  0.66327732    -0.71000
O845        O  0.97329086  0.30522119  0.62471433    -0.71100
O846        O  0.02581843  0.34299758  0.66297395    -0.71100
O847        O  0.02597547  0.37446155  0.63220836    -0.71100
O848        O  0.97311622  0.33632555  0.59358593    -0.71000
O849        O  0.97366222  0.37482431  0.63262852    -0.71000
O850        O  0.02549109  0.33590099  0.59323379    -0.71100
Ni851      Ni  0.99956387  0.32300283  0.64491999     1.25400
Ni852      Ni  0.99955966  0.35653773  0.61175870     1.25400
C853        C  0.03250077  0.31319075  0.60175206     0.91200
C854        C  0.96672953  0.36606649  0.65527668     0.91100
C855        C  0.96600041  0.31366857  0.60212193     0.91100
C856        C  0.03305683  0.36569836  0.65479572     0.91300
O857        O  0.17858176  0.45850460  0.84339581    -0.71000
O858        O  0.14020253  0.51053698  0.80517734    -0.71000
O859        O  0.17811171  0.51061528  0.84372416    -0.71100
O860        O  0.14062577  0.45843877  0.80482852    -0.71100
O861        O  0.10907231  0.45785804  0.83548641    -0.71100
O862        O  0.14700677  0.51031269  0.87484462    -0.71000
O863        O  0.10861986  0.51022028  0.83581269    -0.71000
O864        O  0.14748455  0.45792534  0.87451514    -0.71100
Ni865      Ni  0.16046726  0.48454157  0.82321324     1.25400
Ni866      Ni  0.12688065  0.48406300  0.85631718     1.25400
C867        C  0.17020909  0.45106958  0.86596186     0.91200
C868        C  0.11740938  0.51747922  0.81329180     0.91100
C869        C  0.16961911  0.51761357  0.86638156     0.91100
C870        C  0.11796075  0.45100290  0.81287746     0.91300
O871        O  0.39001198  0.33557800  0.95789974    -0.71000
O872        O  0.35065332  0.37439853  0.00997850    -0.71000
O873        O  0.38982979  0.33583298  0.01033229    -0.71100
O874        O  0.35091310  0.37412216  0.95757142    -0.71100
O875        O  0.32029741  0.34256159  0.95776424    -0.71100
O876        O  0.35876274  0.30472268  0.01022657    -0.71000
O877        O  0.32009378  0.34278819  0.00990310    -0.71000
O878        O  0.35890827  0.30450011  0.95807049    -0.71100
Ni879      Ni  0.37150435  0.35614923  0.98394981     1.25400
Ni880      Ni  0.33845997  0.32256684  0.98399690     1.25400
C881        C  0.38157372  0.31282367  0.95092972     0.91200
C882        C  0.32802147  0.36563643  0.01693946     0.91100
C883        C  0.38139467  0.31310816  0.01741429     0.91100
C884        C  0.32833624  0.36531506  0.95053164     0.91300
O885        O  0.47398525  0.13177402  0.87444054    -0.71000
O886        O  0.52576478  0.09267948  0.83510965    -0.71000
O887        O  0.52634719  0.13098194  0.87436048    -0.71100
O888        O  0.47344481  0.09338433  0.83525441    -0.71100
O889        O  0.47399717  0.12499093  0.80464252    -0.71100
O890        O  0.52651804  0.16226237  0.84340962    -0.71000
O891        O  0.52606397  0.12443242  0.80464687    -0.71000
O892        O  0.47442745  0.16292036  0.84336378    -0.71100
Ni893      Ni  0.49987066  0.11103840  0.85594069     1.25400
Ni894      Ni  0.50026416  0.14474082  0.82295598     1.25400
C895        C  0.46717226  0.15457690  0.86600166     0.91200
C896        C  0.53290211  0.10152279  0.81255617     0.91100
C897        C  0.53362853  0.15365053  0.86599714     0.91100
C898        C  0.46657268  0.10229077  0.81265637     0.91300
O899        O  0.47385588  0.09291038  0.13143009    -0.71000
O900        O  0.52675392  0.13147851  0.09317666    -0.71000
O901        O  0.52620191  0.09279110  0.13207242    -0.71100
O902        O  0.47433780  0.13172712  0.09258207    -0.71100
O903        O  0.47416069  0.16251918  0.12400021    -0.71100
O904        O  0.52585273  0.12425736  0.16281838    -0.71000
O905        O  0.52626738  0.16243628  0.12443739    -0.71000
O906        O  0.47379142  0.12423694  0.16232152    -0.71100
Ni907      Ni  0.50029371  0.11106558  0.11114321     1.25400
Ni908      Ni  0.50000652  0.14443539  0.14445111     1.25400
C909        C  0.46667636  0.10154014  0.15404668     0.91200
C910        C  0.53375326  0.15411266  0.10186961     0.91100
C911        C  0.53303526  0.10150789  0.15477330     0.91100
C912        C  0.46717241  0.15435288  0.10122548     0.91300
O913        O  0.35926942  0.00924817  0.66272608    -0.71000
O914        O  0.32147712  0.95706812  0.62410017    -0.71000
O915        O  0.35948251  0.95714853  0.66256846    -0.71100
O916        O  0.32120026  0.00918708  0.62425592    -0.71100
O917        O  0.35222189  0.00954723  0.59305891    -0.71100
O918        O  0.39098286  0.95722822  0.63184714    -0.71000
O919        O  0.35250288  0.95715665  0.59290009    -0.71000
O920        O  0.39073481  0.00958704  0.63197385    -0.71100
Ni921      Ni  0.33927229  0.98315149  0.64448453     1.25400
Ni922      Ni  0.37277241  0.98338491  0.61129112     1.25400
C923        C  0.38193803  0.01657005  0.65457660     0.91200
C924        C  0.32988101  0.94997580  0.60143639     0.91100
C925        C  0.38222904  0.95009422  0.65442316     0.91100
C926        C  0.32954552  0.01652328  0.60164688     0.91300
O927        O  0.52449332  0.84181709  0.80316527    -0.71000
O928        O  0.47274492  0.80411317  0.84248281    -0.71000
O929        O  0.47239772  0.84236766  0.80417848    -0.71100
O930        O  0.52480488  0.80356237  0.84153876    -0.71100
O931        O  0.52581253  0.83455600  0.87276677    -0.71100
O932        O  0.47316840  0.87366157  0.83511478    -0.71000
O933        O  0.47355809  0.83503962  0.87378454    -0.71000
O934        O  0.52546711  0.87315098  0.83405149    -0.71100
Ni935      Ni  0.49858029  0.82187240  0.82173937     1.25400
Ni936      Ni  0.49953643  0.85525069  0.85506516     1.25400
C937        C  0.53206216  0.86441254  0.81132051     0.91200
C938        C  0.46612286  0.81248247  0.86530566     0.91100
C939        C  0.46557649  0.86509048  0.81264305     0.91100
C940        C  0.53243947  0.81182842  0.86408660     0.91300
O941        O  0.35807324  0.66298251  0.95672256    -0.71000
O942        O  0.31923676  0.62498833  0.00868782    -0.71000
O943        O  0.35761187  0.66321032  0.00882877    -0.71100
O944        O  0.31976298  0.62476412  0.95649350    -0.71100
O945        O  0.35060851  0.59340627  0.95676394    -0.71100
O946        O  0.38882675  0.63222720  0.00937193    -0.71000
O947        O  0.35004060  0.59360077  0.00921107    -0.71000
O948        O  0.38934952  0.63205647  0.95704251    -0.71100
Ni949      Ni  0.33757788  0.64506052  0.98266577     1.25400
Ni950      Ni  0.37084156  0.61165701  0.98310992     1.25400
C951        C  0.38084144  0.65470207  0.94987206     0.91200
C952        C  0.32741990  0.60236250  0.01614290     0.91100
C953        C  0.38022558  0.65493907  0.01619914     0.91100
C954        C  0.32809865  0.60207758  0.94941459     0.91300
O955        O  0.52630737  0.87384858  0.13216803    -0.71000
O956        O  0.47455495  0.83390065  0.09387259    -0.71000
O957        O  0.47398457  0.87297642  0.13210965    -0.71100
O958        O  0.52683744  0.83487114  0.09377675    -0.71100
O959        O  0.52716879  0.80414320  0.12529416    -0.71100
O960        O  0.47470262  0.84208031  0.16345057    -0.71000
O961        O  0.47509079  0.80336535  0.12556209    -0.71000
O962        O  0.52680064  0.84272022  0.16327535    -0.71100
Ni963      Ni  0.50040854  0.85503646  0.11182518     1.25400
Ni964      Ni  0.50096593  0.82199923  0.14550045     1.25400
C965        C  0.53359846  0.86545208  0.15483338     0.91200
C966        C  0.46774845  0.81129989  0.10280419     0.91100
C967        C  0.46711814  0.86451776  0.15485992     0.91100
C968        C  0.53413508  0.81237985  0.10251817     0.91300
O969        O  0.32108421  0.00991473  0.34358981    -0.71000
O970        O  0.35852624  0.95801126  0.30417689    -0.71000
O971        O  0.32077295  0.95777870  0.34300121    -0.71100
O972        O  0.35882905  0.01011688  0.30475293    -0.71100
O973        O  0.39058829  0.00969350  0.33517998    -0.71100
O974        O  0.35202216  0.95711608  0.37395032    -0.71000
O975        O  0.39024676  0.95732510  0.33464315    -0.71000
O976        O  0.35236191  0.00954176  0.37451362    -0.71100
Ni977      Ni  0.33871206  0.98397193  0.32282938     1.25400
Ni978      Ni  0.37247427  0.98339778  0.35572242     1.25400
C979        C  0.32968545  0.01687476  0.36621958     0.91200
C980        C  0.38127702  0.95061493  0.31201978     0.91100
C981        C  0.32925301  0.95026987  0.36550258     0.91100
C982        C  0.38168747  0.01703362  0.31271687     0.91300
O983        O  0.14911223  0.87428417  0.45861800    -0.71000
O984        O  0.10971294  0.83609538  0.51087396    -0.71000
O985        O  0.14868494  0.87449649  0.51106115    -0.71100
O986        O  0.11012259  0.83587412  0.45852832    -0.71100
O987        O  0.14118490  0.80473811  0.45900593    -0.71100
O988        O  0.17934035  0.84295257  0.51128910    -0.71000
O989        O  0.14080435  0.80497978  0.51112029    -0.71000
O990        O  0.17976054  0.84274144  0.45909585    -0.71100
Ni991      Ni  0.12827759  0.85635886  0.48476077     1.25400
Ni992      Ni  0.16135711  0.82277038  0.48514419     1.25400
C993        C  0.17167441  0.86540672  0.45165539     0.91200
C994        C  0.11810833  0.81340660  0.51802774     0.91100
C995        C  0.17115589  0.86569045  0.51837729     0.91100
C996        C  0.11861450  0.81313343  0.45164655     0.91300
O997        O  0.97280897  0.63249989  0.37413622    -0.71000
O998        O  0.02576950  0.59484098  0.33554978    -0.71000
O999        O  0.02508752  0.63377366  0.37395492    -0.71100
O1000       O  0.97345815  0.59371379  0.33559811    -0.71100
O1001       O  0.97274248  0.62496629  0.30461757    -0.71100
O1002       O  0.02433673  0.66441200  0.34237049    -0.71000
O1003       O  0.02483366  0.62584630  0.30432239    -0.71000
O1004       O  0.97226685  0.66336020  0.34274822    -0.71100
Ni1005     Ni  0.99930634  0.61256531  0.35596177     1.25400
Ni1006     Ni  0.99851539  0.64573032  0.32241483     1.25400
C1007       C  0.96536558  0.65497535  0.36548921     0.91200
C1008       C  0.03253355  0.60340842  0.31281068     0.91100
C1009       C  0.03175282  0.65644700  0.36509256     0.91100
C1010       C  0.96607089  0.60217240  0.31298863     0.91300
O1011       O  0.88981682  0.83498340  0.45719440    -0.71000
O1012       O  0.85093024  0.87268225  0.50986706    -0.71000
O1013       O  0.88907703  0.83374757  0.50951866    -0.71100
O1014       O  0.85158110  0.87389818  0.45753937    -0.71100
O1015       O  0.82043470  0.84283857  0.45650902    -0.71100
O1016       O  0.85749533  0.80313710  0.50836280    -0.71000
O1017       O  0.81966025  0.84175292  0.50863035    -0.71000
O1018       O  0.85828585  0.80430730  0.45623536    -0.71100
Ni1019     Ni  0.87150521  0.85495924  0.48356429     1.25400
Ni1020     Ni  0.83785859  0.82191824  0.48238946     1.25400
C1021       C  0.88108333  0.81262036  0.44952967     0.91200
C1022       C  0.82817609  0.86411620  0.51648247     0.91100
C1023       C  0.88008694  0.81112227  0.51608116     0.91100
C1024       C  0.82903607  0.86557330  0.44993897     0.91300
O1025       O  0.67948651  0.95657333  0.34285528    -0.71000
O1026       O  0.64174474  0.00893071  0.30427329    -0.71000
O1027       O  0.68021377  0.00869081  0.34246782    -0.71100
O1028       O  0.64113121  0.95679265  0.30465083    -0.71100
O1029       O  0.60988968  0.95728975  0.33562320    -0.71100
O1030       O  0.64946777  0.00936988  0.37392642    -0.71000
O1031       O  0.61061080  0.00966190  0.33534887    -0.71000
O1032       O  0.64867150  0.95702705  0.37426039    -0.71100
Ni1033     Ni  0.66172353  0.98272473  0.32247119     1.25400
Ni1034     Ni  0.62851380  0.98335886  0.35594108     1.25400
C1035       C  0.67118745  0.94966618  0.36562546     0.91200
C1036       C  0.61920949  0.01647328  0.31261954     0.91100
C1037       C  0.67214325  0.01611493  0.36515486     0.91100
C1038       C  0.61838971  0.94995065  0.31301274     0.91300
O1039       O  0.97494396  0.66394824  0.62635947    -0.71000
O1040       O  0.02747409  0.62517319  0.66355343    -0.71000
O1041       O  0.02699427  0.66354469  0.62534958    -0.71100
O1042       O  0.97537802  0.62561847  0.66462005    -0.71100
O1043       O  0.97447037  0.59435111  0.63366145    -0.71100
O1044       O  0.02618541  0.63272439  0.59394281    -0.71000
O1045       O  0.02676650  0.59397998  0.63251203    -0.71000
O1046       O  0.97395149  0.63299596  0.59508435    -0.71100
Ni1047     Ni  0.00123429  0.64566164  0.64607902     1.25400
Ni1048     Ni  0.00032005  0.61236659  0.61266365     1.25400
C1049       C  0.96727257  0.65567703  0.60382641     0.91200
C1050       C  0.03432333  0.60248598  0.65501794     0.91100
C1051       C  0.03355156  0.65528798  0.60246699     0.91100
C1052       C  0.96782411  0.60304496  0.65639236     0.91300
O1053       O  0.64143015  0.95867447  0.66391886    -0.71000
O1054       O  0.67980574  0.01077723  0.62572988    -0.71000
O1055       O  0.64086441  0.01079575  0.66331503    -0.71100
O1056       O  0.68037416  0.95868076  0.62632112    -0.71100
O1057       O  0.65003223  0.95791465  0.59446294    -0.71100
O1058       O  0.61013558  0.01020540  0.63182811    -0.71000
O1059       O  0.64946234  0.01020874  0.59386947    -0.71000
O1060       O  0.61073134  0.95786713  0.63240751    -0.71100
Ni1061     Ni  0.66168893  0.98475842  0.64594127     1.25400
Ni1062     Ni  0.62896333  0.98402688  0.61198098     1.25400
C1063       C  0.61903134  0.95111700  0.65525473     0.91200
C1064       C  0.67185414  0.01757246  0.60280763     0.91100
C1065       C  0.61829571  0.01765017  0.65450724     0.91100
C1066       C  0.67255023  0.95118271  0.60357496     0.91300
O1067       O  0.60966781  0.63296545  0.95810348    -0.71000
O1068       O  0.64746954  0.59324620  0.01021786    -0.71000
O1069       O  0.60911919  0.63204747  0.01045052    -0.71100
O1070       O  0.64797764  0.59413512  0.95785901    -0.71100
O1071       O  0.67910855  0.62521258  0.95878956    -0.71100
O1072       O  0.64058420  0.66279629  0.01114879    -0.71000
O1073       O  0.67854607  0.62438348  0.01092975    -0.71000
O1074       O  0.64114588  0.66368844  0.95901411    -0.71100
Ni1075     Ni  0.62740713  0.61195892  0.98412986     1.25400
Ni1076     Ni  0.66095066  0.64510995  0.98500232     1.25400
C1077       C  0.61855249  0.65559880  0.95141332     0.91200
C1078       C  0.67001154  0.60168283  0.01770448     0.91100
C1079       C  0.61783386  0.65446606  0.01798616     0.91100
C1080       C  0.67067053  0.60276660  0.95109896     0.91300
C1081       C  0.04693668  0.29539721  0.58509766    -0.09800
C1082       C  0.05767977  0.27682403  0.57482216    -0.11400
C1083       C  0.09092503  0.19137321  0.54186990    -0.09800
C1084       C  0.10137664  0.17281012  0.53123441    -0.11400
C1085       C  0.04704822  0.29526079  0.38288930    -0.09800
C1086       C  0.05776215  0.27643752  0.39276169    -0.11400
C1087       C  0.09042689  0.19048024  0.42506749    -0.09800
C1088       C  0.10092914  0.17202820  0.43586264    -0.11400
C1089       C  0.94057005  0.27752453  0.57522397    -0.09800
C1090       C  0.95132107  0.29606325  0.58552032    -0.11400
C1091       C  0.90853653  0.19154395  0.54298481    -0.09800
C1092       C  0.89850681  0.17285945  0.53225695    -0.11400
C1093       C  0.94038656  0.27648332  0.39206825    -0.09800
C1094       C  0.95116132  0.29517250  0.38206448    -0.11400
C1095       C  0.90806182  0.19085596  0.42489360    -0.09800
C1096       C  0.89791427  0.17249018  0.43604849    -0.11400
C1097       C  0.05850525  0.57601743  0.27739179    -0.09800
C1098       C  0.04736379  0.58691317  0.29531287    -0.11400
C1099       C  0.09188848  0.54198433  0.19267050    -0.09800
C1100       C  0.10176352  0.53147478  0.17376584    -0.11400
C1101       C  0.05829452  0.39314049  0.27775497    -0.09800
C1102       C  0.04739922  0.38276829  0.29618968    -0.11400
C1103       C  0.09130411  0.42571169  0.19210393    -0.09800
C1104       C  0.10128788  0.43626217  0.17324957    -0.11400
C1105       C  0.95173858  0.58534317  0.29535480    -0.09800
C1106       C  0.94105991  0.57504997  0.27678757    -0.11400
C1107       C  0.90817655  0.54316210  0.19100011    -0.09800
C1108       C  0.89772574  0.53249619  0.17250725    -0.11400
C1109       C  0.94178688  0.39250284  0.27600944    -0.09800
C1110       C  0.95218789  0.38242372  0.29490373    -0.11400
C1111       C  0.90800270  0.42568492  0.19088464    -0.09800
C1112       C  0.89726212  0.43672304  0.17275808    -0.11400
C1113       C  0.70573394  0.57447146  0.04308511    -0.09800
C1114       C  0.68736775  0.58487515  0.03226977    -0.11400
C1115       C  0.81018334  0.53230257  0.08585174    -0.09800
C1116       C  0.79155206  0.54271920  0.07543772    -0.11400
C1117       C  0.68856989  0.38161384  0.03057233    -0.09800
C1118       C  0.70723991  0.39180859  0.04119977    -0.11400
C1119       C  0.80975879  0.43691266  0.08637180    -0.09800
C1120       C  0.79160736  0.42583663  0.07573521    -0.11400
C1121       C  0.70625832  0.57581014  0.92511597    -0.09800
C1122       C  0.68818125  0.58638261  0.93624601    -0.11400
C1123       C  0.79043129  0.54163149  0.89100362    -0.09800
C1124       C  0.80889251  0.53091087  0.88061213    -0.11400
C1125       C  0.70643899  0.39231605  0.92515891    -0.09800
C1126       C  0.68775837  0.38200420  0.93559755    -0.11400
C1127       C  0.81026850  0.43563268  0.88196088    -0.09800
C1128       C  0.79189517  0.42488407  0.89246544    -0.11400
C1129       C  0.05980752  0.57492043  0.69051255    -0.09800
C1130       C  0.04898105  0.58568444  0.67233621    -0.11400
C1131       C  0.10094052  0.53189660  0.79541270    -0.09800
C1132       C  0.09112620  0.54239038  0.77649248    -0.11400
C1133       C  0.04764179  0.38217414  0.67259264    -0.09800
C1134       C  0.05846483  0.39258526  0.69102687    -0.11400
C1135       C  0.09164580  0.42562838  0.77628041    -0.09800
C1136       C  0.10171437  0.43639858  0.79492024    -0.11400
C1137       C  0.94214137  0.57612078  0.69233080    -0.09800
C1138       C  0.95320115  0.58664794  0.67414687    -0.11400
C1139       C  0.90746431  0.54186006  0.77636784    -0.09800
C1140       C  0.89680847  0.53102850  0.79462145    -0.11400
C1141       C  0.94221149  0.39251884  0.69234525    -0.09800
C1142       C  0.95258391  0.38258605  0.67339056    -0.11400
C1143       C  0.89813235  0.43544765  0.79603659    -0.09800
C1144       C  0.90899463  0.42455709  0.77793510    -0.11400
C1145       C  0.30967866  0.58604893  0.03099674    -0.09800
C1146       C  0.29134717  0.57578189  0.04212611    -0.11400
C1147       C  0.20599587  0.54281833  0.07516462    -0.09800
C1148       C  0.18741235  0.53202892  0.08534851    -0.11400
C1149       C  0.29096169  0.39226008  0.04156477    -0.09800
C1150       C  0.30985150  0.38217379  0.03113863    -0.11400
C1151       C  0.18689595  0.43601419  0.08465837    -0.09800
C1152       C  0.20524485  0.42504457  0.07423597    -0.11400
C1153       C  0.29202620  0.57522833  0.92396230    -0.09800
C1154       C  0.31053328  0.58553230  0.93469955    -0.11400
C1155       C  0.20576929  0.54294307  0.89316165    -0.09800
C1156       C  0.18714459  0.53219788  0.88308163    -0.11400
C1157       C  0.29162573  0.39199667  0.92549574    -0.09800
C1158       C  0.31034544  0.38176974  0.93605717    -0.11400
C1159       C  0.20627496  0.42540480  0.89276575    -0.09800
C1160       C  0.18789496  0.43639258  0.88245909    -0.11400
C1161       C  0.60183463  0.29458895  0.03173703    -0.09800
C1162       C  0.59173396  0.27618817  0.04289318    -0.11400
C1163       C  0.54857155  0.17182882  0.08551275    -0.09800
C1164       C  0.55940105  0.19046151  0.07547202    -0.11400
C1165       C  0.40862730  0.27684675  0.04263753    -0.09800
C1166       C  0.39812606  0.29536460  0.03193606    -0.11400
C1167       C  0.45266771  0.17225384  0.08471119    -0.09800
C1168       C  0.44190196  0.19103998  0.07482155    -0.11400
C1169       C  0.59120152  0.27572387  0.92476836    -0.09800
C1170       C  0.60111773  0.29452165  0.93541103    -0.11400
C1171       C  0.55914204  0.18950459  0.89319898    -0.09800
C1172       C  0.54830262  0.17108567  0.88278177    -0.11400
C1173       C  0.39829615  0.29499083  0.93655681    -0.09800
C1174       C  0.40864852  0.27636051  0.92594225    -0.11400
C1175       C  0.44200484  0.19091977  0.89303042    -0.09800
C1176       C  0.45277366  0.17239679  0.88267816    -0.11400
C1177       C  0.59039341  0.04323348  0.68969953    -0.09800
C1178       C  0.60128447  0.03228232  0.67166310    -0.11400
C1179       C  0.55740494  0.07517108  0.77539938    -0.09800
C1180       C  0.54706008  0.08502020  0.79442040    -0.11400
C1181       C  0.40856925  0.04221754  0.69077867    -0.09800
C1182       C  0.39829248  0.03123781  0.67237958    -0.11400
C1183       C  0.44145869  0.07572742  0.77597817    -0.09800
C1184       C  0.45206589  0.08596531  0.79464223    -0.11400
C1185       C  0.59162387  0.92547460  0.69082654    -0.09800
C1186       C  0.60233555  0.93645647  0.67269904    -0.11400
C1187       C  0.55743791  0.89124521  0.77509112    -0.09800
C1188       C  0.54657508  0.88079807  0.79344806    -0.11400
C1189       C  0.39869324  0.93568855  0.67231600    -0.09800
C1190       C  0.40855592  0.92518288  0.69120420    -0.11400
C1191       C  0.45087291  0.88183529  0.79529570    -0.09800
C1192       C  0.43998750  0.89253304  0.77710973    -0.11400
C1193       C  0.59092722  0.69041363  0.04331768    -0.09800
C1194       C  0.60123560  0.67194716  0.03260058    -0.11400
C1195       C  0.55904182  0.77620681  0.07537236    -0.09800
C1196       C  0.54853191  0.79471425  0.08586333    -0.11400
C1197       C  0.39681387  0.67273125  0.03064154    -0.09800
C1198       C  0.40738726  0.69110122  0.04139910    -0.11400
C1199       C  0.45319390  0.79332951  0.08651333    -0.09800
C1200       C  0.44216080  0.77505650  0.07607003    -0.11400
C1201       C  0.60234284  0.67344213  0.93673218    -0.09800
C1202       C  0.59203304  0.69177327  0.92574178    -0.11400
C1203       C  0.55780305  0.77586019  0.89130032    -0.09800
C1204       C  0.54696327  0.79406478  0.88057639    -0.11400
C1205       C  0.40808001  0.69119663  0.92538841    -0.09800
C1206       C  0.39766642  0.67250204  0.93572769    -0.11400
C1207       C  0.44112781  0.77661865  0.89288087    -0.09800
C1208       C  0.45183280  0.79493736  0.88222026    -0.11400
C1209       C  0.60269142  0.03116908  0.29494508    -0.09800
C1210       C  0.59190932  0.04215776  0.27681899    -0.11400
C1211       C  0.55777063  0.07510236  0.19179880    -0.09800
C1212       C  0.54728045  0.08503999  0.17289263    -0.11400
C1213       C  0.40826371  0.04213518  0.27601581    -0.09800
C1214       C  0.39811744  0.03151426  0.29474321    -0.11400
C1215       C  0.45212602  0.08496365  0.17181520    -0.09800
C1216       C  0.44136146  0.07469327  0.19038417    -0.11400
C1217       C  0.60163646  0.93550991  0.29535915    -0.09800
C1218       C  0.59130645  0.92487046  0.27677121    -0.11400
C1219       C  0.55867986  0.89264945  0.19096055    -0.09800
C1220       C  0.54797512  0.88229018  0.17243786    -0.11400
C1221       C  0.40749669  0.92583468  0.27490202    -0.09800
C1222       C  0.39752414  0.93629499  0.29379034    -0.11400
C1223       C  0.45229152  0.88111759  0.17226244    -0.09800
C1224       C  0.44112583  0.89201687  0.19016662    -0.11400
C1225       C  0.31187659  0.03122956  0.58514729    -0.09800
C1226       C  0.29352635  0.04225635  0.57482033    -0.11400
C1227       C  0.20828368  0.07587431  0.54195337    -0.09800
C1228       C  0.18954850  0.08611171  0.53142004    -0.11400
C1229       C  0.29395808  0.04258382  0.39346722    -0.09800
C1230       C  0.31227465  0.03157144  0.38303642    -0.11400
C1231       C  0.18927371  0.08540638  0.43637450    -0.09800
C1232       C  0.20816317  0.07531035  0.42595847    -0.11400
C1233       C  0.29359531  0.92475266  0.57470860    -0.09800
C1234       C  0.31225213  0.93544033  0.58479615    -0.11400
C1235       C  0.20738746  0.89239359  0.54378930    -0.09800
C1236       C  0.18884470  0.88213399  0.53306598    -0.11400
C1237       C  0.31158018  0.93561283  0.38207291    -0.09800
C1238       C  0.29300916  0.92486592  0.39232409    -0.11400
C1239       C  0.20779197  0.89187655  0.42564534    -0.09800
C1240       C  0.18946060  0.88164163  0.43679070    -0.11400
C1241       C  0.05818021  0.69141166  0.57490147    -0.09800
C1242       C  0.04765081  0.67297669  0.58553861    -0.11400
C1243       C  0.09081051  0.77704137  0.54256443    -0.09800
C1244       C  0.10122585  0.79571845  0.53221430    -0.11400
C1245       C  0.05709590  0.69289560  0.39177043    -0.09800
C1246       C  0.04620953  0.67447892  0.38141456    -0.11400
C1247       C  0.09141272  0.77715825  0.42621070    -0.09800
C1248       C  0.10198040  0.79546002  0.43709771    -0.11400
C1249       C  0.94163425  0.69143396  0.57663823    -0.09800
C1250       C  0.95262775  0.67336568  0.58740445    -0.11400
C1251       C  0.90657048  0.77494923  0.54180459    -0.09800
C1252       C  0.89619290  0.79320627  0.53076930    -0.11400
C1253       C  0.95084723  0.67245557  0.38220726    -0.09800
C1254       C  0.94019577  0.69086794  0.39270038    -0.11400
C1255       C  0.89772716  0.79516500  0.43495178    -0.09800
C1256       C  0.90808463  0.77668844  0.42431095    -0.11400
C1257       C  0.70829885  0.04241833  0.57588477    -0.09800
C1258       C  0.68972650  0.03189634  0.58627406    -0.11400
C1259       C  0.81231166  0.08507426  0.53239278    -0.09800
C1260       C  0.79379616  0.07466419  0.54300761    -0.11400
C1261       C  0.70847173  0.04146380  0.39204011    -0.09800
C1262       C  0.69007979  0.03062355  0.38157158    -0.11400
C1263       C  0.79314876  0.07485987  0.42636268    -0.09800
C1264       C  0.81164950  0.08516817  0.43714936    -0.11400
C1265       C  0.70905448  0.92585750  0.57713676    -0.09800
C1266       C  0.69059336  0.93665875  0.58742032    -0.11400
C1267       C  0.79282872  0.89125926  0.54261174    -0.09800
C1268       C  0.81072842  0.88051453  0.53137429    -0.11400
C1269       C  0.70743272  0.92470730  0.39268673    -0.09800
C1270       C  0.68882559  0.93522339  0.38233524    -0.11400
C1271       C  0.79335122  0.89301949  0.42478890    -0.09800
C1272       C  0.81173013  0.88254316  0.43550874    -0.11400
loop_ 
_geom_bond_atom_site_label_1 
_geom_bond_atom_site_label_2 
_geom_bond_distance 
_geom_bond_site_symmetry_2 
_ccdc_geom_bond_type 
N1            C5   1.361       .  A
N1            C2   1.360       .  A
N1           C49   1.455       .  S
C2            C3   1.378       .  A
C2         C1271   1.436       .  S
C3            C4   1.369       .  A
C3            H6   1.083       .  S
C4            C5   1.378       .  A
C4            H7   1.083       .  S
C5         C1269   1.438       .  S
N8           C12   1.360       .  A
N8            C9   1.361       .  A
N8           C52   1.456       .  S
C9           C10   1.378       .  A
C9         C1265   1.437       .  S
C10          C11   1.369       .  A
C10          H13   1.083       .  S
C11          C12   1.378       .  A
C11          H14   1.083       .  S
C12        C1267   1.435       .  S
N15          C19   1.362       .  A
N15          C16   1.362       .  A
N15          C50   1.454       .  S
C16          C17   1.378       .  A
C16        C1263   1.440       .  S
C17          C18   1.370       .  A
C17          H20   1.083       .  S
C18          C19   1.378       .  A
C18          H21   1.083       .  S
C19        C1261   1.441       .  S
N22          C26   1.361       .  A
N22          C23   1.361       .  A
N22          C51   1.455       .  S
C23          C24   1.378       .  A
C23        C1257   1.437       .  S
C24          C25   1.369       .  A
C24          H27   1.083       .  S
C25          C26   1.378       .  A
C25          H28   1.083       .  S
C26        C1260   1.437       .  S
N29          C34   1.358   1_565  A
N29          C33   1.358       .  A
N29          H61   1.036       .  S
N30          C37   1.358       .  A
N30          C38   1.358       .  A
N31          C36   1.359   1_565  A
N31          C35   1.358       .  A
N31          H62   1.036       .  S
N32          C39   1.357       .  A
N32          C40   1.357       .  A
C33          C41   1.386       .  A
C33          C49   1.423       .  A
C34          C50   1.423       .  A
C34          C42   1.386   1_545  A
C35          C43   1.386       .  A
C35          C52   1.424       .  A
C36          C51   1.423       .  A
C36          C44   1.385   1_545  A
C37          C49   1.423       .  A
C37          C45   1.385       .  A
C38          C52   1.424       .  A
C38          C46   1.385       .  A
C39          C47   1.385       .  A
C39          C50   1.421       .  A
C40          C48   1.385       .  A
C40          C51   1.421       .  A
C41          C42   1.379       .  A
C41          H53   1.082       .  S
C42          H54   1.082   1_565  S
C43          C44   1.380       .  A
C43          H55   1.082       .  S
C44          H56   1.082   1_565  S
C45          C46   1.378       .  A
C45          H57   1.082       .  S
C46          H58   1.082       .  S
C47          C48   1.376       .  A
C47          H59   1.082       .  S
C48          H60   1.082       .  S
N63          C67   1.360       .  A
N63          C64   1.361       .  A
N63         C111   1.456       .  S
C64          C65   1.378       .  A
C64        C1254   1.435       .  S
C65          C66   1.368       .  A
C65          H68   1.083       .  S
C66          C67   1.378       .  A
C66          H69   1.083       .  S
C67        C1256   1.434       .  S
N70          C74   1.360       .  A
N70          C71   1.361       .  A
N70         C112   1.456       .  S
C71          C72   1.378       .  A
C71        C1249   1.436       .  S
C72          C73   1.368       .  A
C72          H75   1.083       .  S
C73          C74   1.378       .  A
C73          H76   1.083       .  S
C74        C1251   1.436       .  S
N77          C81   1.362       .  A
N77          C78   1.362       .  A
N77         C114   1.455       .  S
C78          C79   1.378       .  A
C78        C1245   1.440       .  S
C79          C80   1.370       .  A
C79          H82   1.083       .  S
C80          C81   1.378       .  A
C80          H83   1.083       .  S
C81        C1247   1.440       .  S
N84          C88   1.361       .  A
N84          C85   1.361       .  A
N84         C113   1.456       .  S
C85          C86   1.378       .  A
C85        C1241   1.437       .  S
C86          C87   1.369       .  A
C86          H89   1.083       .  S
C87          C88   1.378       .  A
C87          H90   1.083       .  S
C88        C1243   1.438       .  S
N91          C96   1.359       .  A
N91          C95   1.359       .  A
N91         H123   1.036       .  S
N92          C99   1.357       .  A
N92         C100   1.357   1_655  A
N93          C98   1.358       .  A
N93          C97   1.358       .  A
N93         H124   1.036       .  S
N94         C101   1.357       .  A
N94         C102   1.358   1_655  A
C95         C103   1.386       .  A
C95         C111   1.425       .  A
C96         C112   1.426       .  A
C96         C104   1.386       .  A
C97         C105   1.386       .  A
C97         C114   1.423       .  A
C98         C113   1.423       .  A
C98         C106   1.386       .  A
C99         C111   1.422       .  A
C99         C107   1.385       .  A
C100        C114   1.422       .  A
C100        C108   1.385       .  A
C101        C109   1.385       .  A
C101        C112   1.423       .  A
C102        C110   1.384       .  A
C102        C113   1.422       .  A
C103        C104   1.380       .  A
C103        H115   1.082       .  S
C104        H116   1.082       .  S
C105        C106   1.379       .  A
C105        H117   1.082       .  S
C106        H118   1.082       .  S
C107        C108   1.376   1_655  A
C107        H119   1.082       .  S
C108        H120   1.082       .  S
C109        C110   1.377   1_655  A
C109        H121   1.082       .  S
C110        H122   1.082       .  S
N125        C129   1.362       .  A
N125        C126   1.361       .  A
N125        C175   1.455       .  S
C126        C127   1.378       .  A
C126       C1239   1.440       .  S
C127        C128   1.370       .  A
C127        H130   1.083       .  S
C128        C129   1.379       .  A
C128        H131   1.083       .  S
C129       C1238   1.441       .  S
N132        C136   1.361       .  A
N132        C133   1.361       .  A
N132        C176   1.454       .  S
C133        C134   1.378       .  A
C133       C1233   1.438       .  S
C134        C135   1.370       .  A
C134        H137   1.083       .  S
C135        C136   1.378       .  A
C135        H138   1.083       .  S
C136       C1235   1.438       .  S
N139        C143   1.362       .  A
N139        C140   1.363       .  A
N139        C174   1.453       .  S
C140        C141   1.379       .  A
C140       C1232   1.444       .  S
C141        C142   1.371       .  A
C141        H144   1.083       .  S
C142        C143   1.378       .  A
C142        H145   1.083       .  S
C143       C1229   1.441       .  S
N146        C150   1.363       .  A
N146        C147   1.361       .  A
N146        C173   1.454       .  S
C147        C148   1.378       .  A
C147       C1226   1.440       .  S
C148        C149   1.370       .  A
C148        H151   1.083       .  S
C149        C150   1.379       .  A
C149        H152   1.083       .  S
C150       C1227   1.443       .  S
N153        C158   1.357       .  A
N153        C157   1.357       .  A
N153        H185   1.036       .  S
N154        C161   1.357   1_565  A
N154        C162   1.356       .  A
N155        C160   1.359       .  A
N155        C159   1.358       .  A
N155        H186   1.036       .  S
N156        C163   1.357   1_565  A
N156        C164   1.357       .  A
C157        C165   1.386       .  A
C157        C173   1.421       .  A
C158        C174   1.421       .  A
C158        C166   1.386       .  A
C159        C167   1.386       .  A
C159        C176   1.425       .  A
C160        C175   1.425       .  A
C160        C168   1.386       .  A
C161        C173   1.421       .  A
C161        C169   1.384   1_545  A
C162        C176   1.422       .  A
C162        C170   1.385       .  A
C163        C171   1.384   1_545  A
C163        C174   1.421       .  A
C164        C172   1.386       .  A
C164        C175   1.423       .  A
C165        C166   1.378       .  A
C165        H177   1.082       .  S
C166        H178   1.082       .  S
C167        C168   1.380       .  A
C167        H179   1.082       .  S
C168        H180   1.082       .  S
C169        C170   1.377       .  A
C169        H181   1.082   1_565  S
C170        H182   1.082       .  S
C171        C172   1.377       .  A
C171        H183   1.082   1_565  S
C172        H184   1.082       .  S
N187        C191   1.361       .  A
N187        C188   1.362       .  A
N187        C235   1.455       .  S
C188        C189   1.378       .  A
C188       C1221   1.440       .  S
C189        C190   1.369       .  A
C189        H192   1.083       .  S
C190        C191   1.378       .  A
C190        H193   1.083       .  S
C191       C1224   1.437       .  S
N194        C198   1.362       .  A
N194        C195   1.362       .  A
N194        C238   1.455       .  S
C195        C196   1.378       .  A
C195       C1219   1.439       .  S
C196        C197   1.370       .  A
C196        H199   1.083       .  S
C197        C198   1.378       .  A
C197        H200   1.083       .  S
C198       C1218   1.440       .  S
N201        C205   1.362       .  A
N201        C202   1.362       .  A
N201        C236   1.454       .  S
C202        C203   1.378       .  A
C202       C1216   1.441       .  S
C203        C204   1.370       .  A
C203        H206   1.083       .  S
C204        C205   1.378       .  A
C204        H207   1.083       .  S
C205       C1213   1.441       .  S
N208        C212   1.362       .  A
N208        C209   1.362       .  A
N208        C237   1.455       .  S
C209        C210   1.378       .  A
C209       C1211   1.441       .  S
C210        C211   1.370       .  A
C210        H213   1.083       .  S
C211        C212   1.378       .  A
C211        H214   1.083       .  S
C212       C1210   1.440       .  S
N215        C220   1.358   1_565  A
N215        C219   1.357       .  A
N215        H247   1.036       .  S
N216        C223   1.358       .  A
N216        C224   1.357       .  A
N217        C222   1.359   1_565  A
N217        C221   1.358       .  A
N217        H248   1.036       .  S
N218        C225   1.357       .  A
N218        C226   1.356       .  A
C219        C227   1.386       .  A
C219        C235   1.423       .  A
C220        C236   1.422       .  A
C220        C228   1.385   1_545  A
C221        C229   1.386       .  A
C221        C238   1.424       .  A
C222        C237   1.424       .  A
C222        C230   1.386   1_545  A
C223        C235   1.423       .  A
C223        C231   1.385       .  A
C224        C238   1.423       .  A
C224        C232   1.385       .  A
C225        C233   1.384       .  A
C225        C236   1.420       .  A
C226        C234   1.385       .  A
C226        C237   1.421       .  A
C227        C228   1.379       .  A
C227        H239   1.082       .  S
C228        H240   1.082   1_565  S
C229        C230   1.380       .  A
C229        H241   1.082       .  S
C230        H242   1.082   1_565  S
C231        C232   1.378       .  A
C231        H243   1.082       .  S
C232        H244   1.082       .  S
C233        C234   1.376       .  A
C233        H245   1.082       .  S
C234        H246   1.082       .  S
N249        C253   1.361       .  A
N249        C250   1.362       .  A
N249        C299   1.455       .  S
C250        C251   1.378       .  A
C250       C1205   1.439       .  S
C251        C252   1.369       .  A
C251        H254   1.083       .  S
C252        C253   1.378       .  A
C252        H255   1.083       .  S
C253       C1207   1.437       .  S
N256        C260   1.361       .  A
N256        C257   1.362       .  A
N256        C298   1.456       .  S
C257        C258   1.378       .  A
C257       C1203   1.437       .  S
C258        C259   1.369       .  A
C258        H261   1.083       .  S
C259        C260   1.378       .  A
C259        H262   1.083       .  S
C260       C1202   1.436       .  S
N263        C267   1.362       .  A
N263        C264   1.362       .  A
N263        C300   1.455       .  S
C264        C265   1.378       .  A
C264       C1198   1.439       .  S
C265        C266   1.370       .  A
C265        H268   1.083       .  S
C266        C267   1.378       .  A
C266        H269   1.083       .  S
C267       C1200   1.439       .  S
N270        C274   1.360       .  A
N270        C271   1.361       .  A
N270        C297   1.456       .  S
C271        C272   1.378       .  A
C271       C1195   1.436       .  S
C272        C273   1.368       .  A
C272        H275   1.083       .  S
C273        C274   1.378       .  A
C273        H276   1.083       .  S
C274       C1193   1.434       .  S
N277        C282   1.359       .  A
N277        C281   1.359   1_556  A
N277        H309   1.036       .  S
N278        C285   1.357       .  A
N278        C286   1.357       .  A
N279        C284   1.358       .  A
N279        C283   1.358   1_556  A
N279        H310   1.036       .  S
N280        C287   1.357       .  A
N280        C288   1.358       .  A
C281        C289   1.386   1_554  A
C281        C297   1.425       .  A
C282        C298   1.426       .  A
C282        C290   1.386       .  A
C283        C291   1.386   1_554  A
C283        C300   1.423       .  A
C284        C299   1.423       .  A
C284        C292   1.385       .  A
C285        C297   1.422       .  A
C285        C293   1.385       .  A
C286        C300   1.422       .  A
C286        C294   1.385       .  A
C287        C295   1.385       .  A
C287        C298   1.423       .  A
C288        C296   1.384       .  A
C288        C299   1.422       .  A
C289        C290   1.381       .  A
C289        H301   1.082   1_556  S
C290        H302   1.082       .  S
C291        C292   1.379       .  A
C291        H303   1.082   1_556  S
C292        H304   1.082       .  S
C293        C294   1.377       .  A
C293        H305   1.082       .  S
C294        H306   1.082       .  S
C295        C296   1.377       .  A
C295        H307   1.082       .  S
C296        H308   1.082       .  S
N311        C315   1.360       .  A
N311        C312   1.361       .  A
N311        C359   1.455       .  S
C312        C313   1.378       .  A
C312       C1190   1.438       .  S
C313        C314   1.369       .  A
C313        H316   1.083       .  S
C314        C315   1.378       .  A
C314        H317   1.083       .  S
C315       C1192   1.437       .  S
N318        C322   1.362       .  A
N318        C319   1.361       .  A
N318        C360   1.456       .  S
C319        C320   1.378       .  A
C319       C1187   1.437       .  S
C320        C321   1.369       .  A
C320        H323   1.083       .  S
C321        C322   1.378       .  A
C321        H324   1.083       .  S
C322       C1185   1.437       .  S
N325        C329   1.361       .  A
N325        C326   1.361       .  A
N325        C362   1.454       .  S
C326        C327   1.378       .  A
C326       C1183   1.440       .  S
C327        C328   1.370       .  A
C327        H330   1.083       .  S
C328        C329   1.378       .  A
C328        H331   1.083       .  S
C329       C1181   1.439       .  S
N332        C336   1.361       .  A
N332        C333   1.362       .  A
N332        C361   1.454       .  S
C333        C334   1.378       .  A
C333       C1179   1.440       .  S
C334        C335   1.370       .  A
C334        H337   1.083       .  S
C335        C336   1.378       .  A
C335        H338   1.083       .  S
C336       C1177   1.437       .  S
N339        C344   1.359       .  A
N339        C343   1.359       .  A
N339        H371   1.036       .  S
N340        C347   1.356       .  A
N340        C348   1.357   1_565  A
N341        C346   1.357       .  A
N341        C345   1.358       .  A
N341        H372   1.036       .  S
N342        C349   1.357       .  A
N342        C350   1.358   1_565  A
C343        C351   1.385       .  A
C343        C359   1.425       .  A
C344        C360   1.426       .  A
C344        C352   1.386       .  A
C345        C353   1.385       .  A
C345        C362   1.421       .  A
C346        C361   1.421       .  A
C346        C354   1.386       .  A
C347        C359   1.421       .  A
C347        C355   1.385       .  A
C348        C362   1.420       .  A
C348        C356   1.384   1_545  A
C349        C357   1.386       .  A
C349        C360   1.424       .  A
C350        C358   1.384   1_545  A
C350        C361   1.422       .  A
C351        C352   1.380       .  A
C351        H363   1.082       .  S
C352        H364   1.082       .  S
C353        C354   1.378       .  A
C353        H365   1.082       .  S
C354        H366   1.082       .  S
C355        C356   1.376       .  A
C355        H367   1.082       .  S
C356        H368   1.082   1_565  S
C357        C358   1.378       .  A
C357        H369   1.082       .  S
C358        H370   1.082   1_565  S
N373        C377   1.362       .  A
N373        C374   1.362       .  A
N373        C422   1.454       .  S
C374        C375   1.378       .  A
C374       C1174   1.443       .  S
C375        C376   1.370       .  A
C375        H378   1.083       .  S
C376        C377   1.378       .  A
C376        H379   1.083       .  S
C377       C1175   1.442       .  S
N380        C384   1.362       .  A
N380        C381   1.361       .  A
N380        C423   1.454       .  S
C381        C382   1.378       .  A
C381       C1169   1.440       .  S
C382        C383   1.370       .  A
C382        H385   1.083       .  S
C383        C384   1.379       .  A
C383        H386   1.083       .  S
C384       C1171   1.440       .  S
N387        C391   1.362       .  A
N387        C388   1.363       .  A
N387        C421   1.453       .  S
C388        C389   1.379       .  A
C388       C1165   1.444       .  S
C389        C390   1.371       .  A
C389        H392   1.083       .  S
C390        C391   1.378       .  A
C390        H393   1.082       .  S
C391       C1168   1.443       .  S
N394        C398   1.361       .  A
N394        C395   1.361       .  A
N394        C424   1.454       .  S
C395        C396   1.379       .  A
C395       C1162   1.440       .  S
C396        C397   1.371       .  A
C396        H399   1.083       .  S
C397        C398   1.379       .  A
C397        H400   1.083       .  S
C398       C1164   1.440       .  S
N401        C406   1.358       .  A
N401        C405   1.357   1_556  A
N401        H433   1.036       .  S
N402        C409   1.357       .  A
N402        C410   1.357       .  A
N403        C408   1.358       .  A
N403        C407   1.358   1_556  A
N403        H434   1.035       .  S
N404        C411   1.357       .  A
N404        C412   1.356       .  A
C405        C413   1.386   1_554  A
C405        C421   1.421       .  A
C406        C422   1.422       .  A
C406        C414   1.386       .  A
C407        C415   1.386   1_554  A
C407        C424   1.423       .  A
C408        C423   1.424       .  A
C408        C416   1.386       .  A
C409        C421   1.421       .  A
C409        C417   1.385       .  A
C410        C424   1.422       .  A
C410        C418   1.385       .  A
C411        C419   1.385       .  A
C411        C422   1.421       .  A
C412        C420   1.385       .  A
C412        C423   1.421       .  A
C413        C414   1.379       .  A
C413        H425   1.082   1_556  S
C414        H426   1.082       .  S
C415        C416   1.380       .  A
C415        H427   1.082   1_556  S
C416        H428   1.082       .  S
C417        C418   1.377       .  A
C417        H429   1.082       .  S
C418        H430   1.082       .  S
C419        C420   1.376       .  A
C419        H431   1.082       .  S
C420        H432   1.082       .  S
N435        C439   1.362       .  A
N435        C436   1.361       .  A
N435        C484   1.454       .  S
C436        C437   1.378       .  A
C436       C1159   1.440       .  S
C437        C438   1.370       .  A
C437        H440   1.083       .  S
C438        C439   1.379       .  A
C438        H441   1.083       .  S
C439       C1157   1.442       .  S
N442        C446   1.361       .  A
N442        C443   1.361       .  A
N442        C485   1.454       .  S
C443        C444   1.378       .  A
C443       C1153   1.438       .  S
C444        C445   1.370       .  A
C444        H447   1.083       .  S
C445        C446   1.378       .  A
C445        H448   1.083       .  S
C446       C1155   1.438       .  S
N449        C453   1.362       .  A
N449        C450   1.363       .  A
N449        C483   1.453       .  S
C450        C451   1.379       .  A
C450       C1149   1.444       .  S
C451        C452   1.371       .  A
C451        H454   1.083       .  S
C452        C453   1.378       .  A
C452        H455   1.083       .  S
C453       C1152   1.441       .  S
N456        C460   1.362       .  A
N456        C457   1.362       .  A
N456        C486   1.455       .  S
C457        C458   1.379       .  A
C457       C1146   1.440       .  S
C458        C459   1.370       .  A
C458        H461   1.083       .  S
C459        C460   1.379       .  A
C459        H462   1.083       .  S
C460       C1147   1.441       .  S
N463        C468   1.357       .  A
N463        C467   1.357   1_556  A
N463        H495   1.036       .  S
N464        C471   1.357       .  A
N464        C472   1.357       .  A
N465        C470   1.358       .  A
N465        C469   1.358   1_556  A
N465        H496   1.036       .  S
N466        C473   1.357       .  A
N466        C474   1.356       .  A
C467        C475   1.386   1_554  A
C467        C483   1.421       .  A
C468        C484   1.421       .  A
C468        C476   1.385       .  A
C469        C477   1.386   1_554  A
C469        C486   1.424       .  A
C470        C485   1.424       .  A
C470        C478   1.386       .  A
C471        C483   1.421       .  A
C471        C479   1.384       .  A
C472        C486   1.422       .  A
C472        C480   1.385       .  A
C473        C481   1.384       .  A
C473        C484   1.421       .  A
C474        C482   1.385       .  A
C474        C485   1.422       .  A
C475        C476   1.378       .  A
C475        H487   1.082   1_556  S
C476        H488   1.082       .  S
C477        C478   1.380       .  A
C477        H489   1.082   1_556  S
C478        H490   1.082       .  S
C479        C480   1.377       .  A
C479        H491   1.082       .  S
C480        H492   1.082       .  S
C481        C482   1.377       .  A
C481        H493   1.082       .  S
C482        H494   1.082       .  S
N497        C501   1.361       .  A
N497        C498   1.362       .  A
N497        C545   1.455       .  S
C498        C499   1.378       .  A
C498       C1141   1.440       .  S
C499        C500   1.370       .  A
C499        H502   1.083       .  S
C500        C501   1.378       .  A
C500        H503   1.083       .  S
C501       C1144   1.438       .  S
N504        C508   1.361       .  A
N504        C505   1.361       .  A
N504        C546   1.456       .  S
C505        C506   1.378       .  A
C505       C1137   1.437       .  S
C506        C507   1.369       .  A
C506        H509   1.083       .  S
C507        C508   1.378       .  A
C507        H510   1.083       .  S
C508       C1139   1.437       .  S
N511        C515   1.362       .  A
N511        C512   1.361       .  A
N511        C548   1.454       .  S
C512        C513   1.378       .  A
C512       C1135   1.439       .  S
C513        C514   1.370       .  A
C513        H516   1.083       .  S
C514        C515   1.378       .  A
C514        H517   1.083       .  S
C515       C1134   1.440       .  S
N518        C522   1.361       .  A
N518        C519   1.361       .  A
N518        C547   1.454       .  S
C519        C520   1.378       .  A
C519       C1132   1.438       .  S
C520        C521   1.369       .  A
C520        H523   1.083       .  S
C521        C522   1.378       .  A
C521        H524   1.083       .  S
C522       C1129   1.436       .  S
N525        C530   1.358       .  A
N525        C529   1.359       .  A
N525        H557   1.036       .  S
N526        C533   1.356   1_455  A
N526        C534   1.356       .  A
N527        C532   1.357       .  A
N527        C531   1.358       .  A
N527        H558   1.036       .  S
N528        C535   1.357   1_455  A
N528        C536   1.358       .  A
C529        C537   1.385       .  A
C529        C545   1.424       .  A
C530        C546   1.425       .  A
C530        C538   1.386       .  A
C531        C539   1.385       .  A
C531        C548   1.422       .  A
C532        C547   1.422       .  A
C532        C540   1.386       .  A
C533        C545   1.421       .  A
C533        C541   1.385       .  A
C534        C548   1.420       .  A
C534        C542   1.384       .  A
C535        C543   1.386       .  A
C535        C546   1.424       .  A
C536        C544   1.384       .  A
C536        C547   1.422       .  A
C537        C538   1.380       .  A
C537        H549   1.082       .  S
C538        H550   1.082       .  S
C539        C540   1.379       .  A
C539        H551   1.082       .  S
C540        H552   1.082       .  S
C541        C542   1.376   1_655  A
C541        H553   1.082       .  S
C542        H554   1.082       .  S
C543        C544   1.378   1_655  A
C543        H555   1.082       .  S
C544        H556   1.082       .  S
N559        C563   1.361       .  A
N559        C560   1.361       .  A
N559        C609   1.455       .  S
C560        C561   1.378       .  A
C560       C1125   1.438       .  S
C561        C562   1.369       .  A
C561        H564   1.083       .  S
C562        C563   1.378       .  A
C562        H565   1.083       .  S
C563       C1128   1.437       .  S
N566        C570   1.360       .  A
N566        C567   1.362       .  A
N566        C608   1.456       .  S
C567        C568   1.378       .  A
C567       C1123   1.437       .  S
C568        C569   1.369       .  A
C568        H571   1.083       .  S
C569        C570   1.378       .  A
C569        H572   1.083       .  S
C570       C1121   1.435       .  S
N573        C577   1.362       .  A
N573        C574   1.362       .  A
N573        C610   1.454       .  S
C574        C575   1.378       .  A
C574       C1118   1.441       .  S
C575        C576   1.370       .  A
C575        H578   1.083       .  S
C576        C577   1.378       .  A
C576        H579   1.083       .  S
C577       C1120   1.440       .  S
N580        C584   1.360       .  A
N580        C581   1.362       .  A
N580        C607   1.456       .  S
C581        C582   1.378       .  A
C581       C1116   1.438       .  S
C582        C583   1.369       .  A
C582        H585   1.083       .  S
C583        C584   1.378       .  A
C583        H586   1.083       .  S
C584       C1113   1.436       .  S
N587        C592   1.359       .  A
N587        C591   1.359   1_556  A
N587        H619   1.036       .  S
N588        C595   1.357       .  A
N588        C596   1.357       .  A
N589        C594   1.358       .  A
N589        C593   1.357   1_556  A
N589        H620   1.036       .  S
N590        C597   1.357       .  A
N590        C598   1.357       .  A
C591        C599   1.386   1_554  A
C591        C607   1.426       .  A
C592        C608   1.427       .  A
C592        C600   1.386       .  A
C593        C601   1.386   1_554  A
C593        C610   1.422       .  A
C594        C609   1.422       .  A
C594        C602   1.385       .  A
C595        C607   1.422       .  A
C595        C603   1.385       .  A
C596        C610   1.421       .  A
C596        C604   1.384       .  A
C597        C605   1.386       .  A
C597        C608   1.423       .  A
C598        C606   1.384       .  A
C598        C609   1.421       .  A
C599        C600   1.381       .  A
C599        H611   1.082   1_556  S
C600        H612   1.082       .  S
C601        C602   1.379       .  A
C601        H613   1.082   1_556  S
C602        H614   1.082       .  S
C603        C604   1.376       .  A
C603        H615   1.082       .  S
C604        H616   1.082       .  S
C605        C606   1.376       .  A
C605        H617   1.082       .  S
C606        H618   1.082       .  S
N621        C625   1.362       .  A
N621        C622   1.363       .  A
N621        C670   1.455       .  S
C622        C623   1.378       .  A
C622       C1109   1.442       .  S
C623        C624   1.370       .  A
C623        H626   1.083       .  S
C624        C625   1.378       .  A
C624        H627   1.083       .  S
C625       C1111   1.440       .  S
N628        C632   1.361       .  A
N628        C629   1.361       .  A
N628        C669   1.455       .  S
C629        C630   1.378       .  A
C629       C1106   1.439       .  S
C630        C631   1.370       .  A
C630        H633   1.083       .  S
C631        C632   1.378       .  A
C631        H634   1.083       .  S
C632       C1107   1.439       .  S
N635        C639   1.362       .  A
N635        C636   1.361       .  A
N635        C671   1.453       .  S
C636        C637   1.378       .  A
C636       C1103   1.442       .  S
C637        C638   1.371       .  A
C637        H640   1.083       .  S
C638        C639   1.378       .  A
C638        H641   1.083       .  S
C639       C1101   1.441       .  S
N642        C646   1.361       .  A
N642        C643   1.361       .  A
N642        C672   1.455       .  S
C643        C644   1.378       .  A
C643       C1099   1.440       .  S
C644        C645   1.370       .  A
C644        H647   1.083       .  S
C645        C646   1.378       .  A
C645        H648   1.083       .  S
C646       C1097   1.437       .  S
N649        C654   1.359       .  A
N649        C653   1.358       .  A
N649        H681   1.036       .  S
N650        C657   1.357       .  A
N650        C658   1.358   1_655  A
N651        C656   1.358       .  A
N651        C655   1.357       .  A
N651        H682   1.036       .  S
N652        C659   1.356       .  A
N652        C660   1.357   1_655  A
C653        C661   1.386       .  A
C653        C669   1.424       .  A
C654        C670   1.424       .  A
C654        C662   1.386       .  A
C655        C663   1.386       .  A
C655        C672   1.423       .  A
C656        C671   1.422       .  A
C656        C664   1.385       .  A
C657        C669   1.423       .  A
C657        C665   1.385       .  A
C658        C672   1.422       .  A
C658        C666   1.385       .  A
C659        C667   1.385       .  A
C659        C670   1.421       .  A
C660        C668   1.384       .  A
C660        C671   1.420       .  A
C661        C662   1.380       .  A
C661        H673   1.082       .  S
C662        H674   1.082       .  S
C663        C664   1.379       .  A
C663        H675   1.082       .  S
C664        H676   1.082       .  S
C665        C666   1.377   1_655  A
C665        H677   1.082       .  S
C666        H678   1.082       .  S
C667        C668   1.376   1_655  A
C667        H679   1.082       .  S
C668        H680   1.082       .  S
N683        C687   1.361       .  A
N683        C684   1.361       .  A
N683        C731   1.454       .  S
C684        C685   1.379       .  A
C684       C1093   1.440       .  S
C685        C686   1.371       .  A
C685        H688   1.083       .  S
C686        C687   1.378       .  A
C686        H689   1.083       .  S
C687       C1095   1.439       .  S
N690        C694   1.361       .  A
N690        C691   1.362       .  A
N690        C734   1.454       .  S
C691        C692   1.379       .  A
C691       C1089   1.440       .  S
C692        C693   1.370       .  A
C692        H695   1.083       .  S
C693        C694   1.378       .  A
C693        H696   1.083       .  S
C694       C1091   1.439       .  S
N697        C701   1.363       .  A
N697        C698   1.362       .  A
N697        C732   1.453       .  S
C698        C699   1.378       .  A
C698       C1086   1.443       .  S
C699        C700   1.371       .  A
C699        H702   1.082       .  S
C700        C701   1.379       .  A
C700        H703   1.083       .  S
C701       C1087   1.443       .  S
N704        C708   1.363       .  A
N704        C705   1.362       .  A
N704        C733   1.454       .  S
C705        C706   1.378       .  A
C705       C1082   1.441       .  S
C706        C707   1.370       .  A
C706        H709   1.083       .  S
C707        C708   1.379       .  A
C707        H710   1.083       .  S
C708       C1083   1.443       .  S
N711        C716   1.358   1_655  A
N711        C715   1.358       .  A
N711        H743   1.036       .  S
N712        C719   1.357       .  A
N712        C720   1.357       .  A
N713        C718   1.358   1_655  A
N713        C717   1.358       .  A
N713        H744   1.036       .  S
N714        C721   1.356       .  A
N714        C722   1.356       .  A
C715        C723   1.386       .  A
C715        C731   1.423       .  A
C716        C732   1.423       .  A
C716        C724   1.386       .  A
C717        C725   1.386       .  A
C717        C734   1.423       .  A
C718        C733   1.423       .  A
C718        C726   1.385       .  A
C719        C731   1.422       .  A
C719        C727   1.385       .  A
C720        C734   1.422       .  A
C720        C728   1.385       .  A
C721        C729   1.385       .  A
C721        C732   1.420       .  A
C722        C730   1.385       .  A
C722        C733   1.420       .  A
C723        C724   1.380   1_655  A
C723        H735   1.082       .  S
C724        H736   1.082       .  S
C725        C726   1.380   1_655  A
C725        H737   1.082       .  S
C726        H738   1.082       .  S
C727        C728   1.377       .  A
C727        H739   1.082       .  S
C728        H740   1.082       .  S
C729        C730   1.376       .  A
C729        H741   1.082       .  S
C730        H742   1.082       .  S
O745       Ni753   1.910       .  S
O745        C755   1.279       .  A
O746       Ni753   1.910   1_455  S
O746        C756   1.279       .  A
O747       Ni753   1.909   1_455  S
O747        C757   1.278       .  A
O748       Ni753   1.909       .  S
O748        C758   1.278       .  A
O749       Ni754   1.929       .  S
O749        C758   1.282       .  A
O750       Ni754   1.930   1_455  S
O750        C757   1.282       .  A
O751       Ni754   1.927   1_455  S
O751        C756   1.281       .  A
O752       Ni754   1.927       .  S
O752        C755   1.281       .  A
Ni753      Ni754   2.393       .  S
C755       C1094   1.437       .  S
C756       C1102   1.438       .  S
C757       C1085   1.439       .  S
C758       C1110   1.439       .  S
O759       Ni767   1.909       .  S
O759        C769   1.279       .  A
O760       Ni767   1.908       .  S
O760        C770   1.279       .  A
O761       Ni767   1.909       .  S
O761        C771   1.278       .  A
O762       Ni767   1.909       .  S
O762        C772   1.278       .  A
O763       Ni768   1.926       .  S
O763        C772   1.281       .  A
O764       Ni768   1.926       .  S
O764        C771   1.281       .  A
O765       Ni768   1.924       .  S
O765        C770   1.281       .  A
O766       Ni768   1.925       .  S
O766        C769   1.281       .  A
Ni767      Ni768   2.394       .  S
C769       C1096   1.436       .  S
C770       C1259   1.435       .  S
C771       C1092   1.436       .  S
C772       C1264   1.437       .  S
O773       Ni781   1.911       .  S
O773        C783   1.279       .  A
O774       Ni781   1.911       .  S
O774        C784   1.279       .  A
O775       Ni781   1.912       .  S
O775        C785   1.279       .  A
O776       Ni781   1.912       .  S
O776        C786   1.279       .  A
O777       Ni782   1.929       .  S
O777        C786   1.282       .  A
O778       Ni782   1.928       .  S
O778        C785   1.282       .  A
O779       Ni782   1.929       .  S
O779        C784   1.282       .  A
O780       Ni782   1.930       .  S
O780        C783   1.282       .  A
Ni781      Ni782   2.393       .  S
C783       C1231   1.441       .  S
C784       C1084   1.440       .  S
C785       C1228   1.440       .  S
C786       C1088   1.440       .  S
O787       Ni795   1.910       .  S
O787        C797   1.279       .  A
O788       Ni795   1.911       .  S
O788        C798   1.279       .  A
O789       Ni795   1.911       .  S
O789        C799   1.279       .  A
O790       Ni795   1.910       .  S
O790        C800   1.279       .  A
O791       Ni796   1.924       .  S
O791        C800   1.281       .  A
O792       Ni796   1.925       .  S
O792        C799   1.281       .  A
O793       Ni796   1.925       .  S
O793        C798   1.281       .  A
O794       Ni796   1.925       .  S
O794        C797   1.281       .  A
Ni795      Ni796   2.394       .  S
C797       C1108   1.436       .  S
C798       C1119   1.438       .  S
C799       C1112   1.437       .  S
C800       C1115   1.435       .  S
O801       Ni809   1.928       .  S
O801        C811   1.282       .  A
O802       Ni809   1.926       .  S
O802        C812   1.281       .  A
O803       Ni809   1.928       .  S
O803        C813   1.282       .  A
O804       Ni809   1.928       .  S
O804        C814   1.282       .  A
O805       Ni810   1.909       .  S
O805        C814   1.279       .  A
O806       Ni810   1.909       .  S
O806        C813   1.278       .  A
O807       Ni810   1.909       .  S
O807        C812   1.279       .  A
O808       Ni810   1.909       .  S
O808        C811   1.278       .  A
Ni809      Ni810   2.393       .  S
C811       C1151   1.438       .  S
C812       C1100   1.437       .  S
C813       C1148   1.437       .  S
C814       C1104   1.438       .  S
O815       Ni823   1.924       .  S
O815        C825   1.281       .  A
O816       Ni823   1.926   1_554  S
O816        C826   1.281       .  A
O817       Ni823   1.927   1_554  S
O817        C827   1.282       .  A
O818       Ni823   1.927       .  S
O818        C828   1.282       .  A
O819       Ni824   1.908       .  S
O819        C828   1.278       .  A
O820       Ni824   1.909   1_554  S
O820        C827   1.278       .  A
O821       Ni824   1.910   1_554  S
O821        C826   1.279       .  A
O822       Ni824   1.908       .  S
O822        C825   1.279       .  A
Ni823      Ni824   2.394       .  S
C825       C1126   1.435       .  S
C826       C1161   1.436       .  S
C827       C1117   1.438       .  S
C828       C1170   1.436       .  S
O829       Ni837   1.922       .  S
O829        C839   1.280       .  A
O830       Ni837   1.922       .  S
O830        C840   1.280       .  A
O831       Ni837   1.923       .  S
O831        C841   1.280       .  A
O832       Ni837   1.922       .  S
O832        C842   1.280       .  A
O833       Ni838   1.910       .  S
O833        C842   1.279       .  A
O834       Ni838   1.909       .  S
O834        C841   1.279       .  A
O835       Ni838   1.909       .  S
O835        C840   1.279       .  A
O836       Ni838   1.909       .  S
O836        C839   1.279       .  A
Ni837      Ni838   2.395       .  S
C839       C1140   1.434       .  S
C840       C1127   1.434       .  S
C841       C1143   1.435       .  S
C842       C1124   1.435       .  S
O843       Ni851   1.909   1_455  S
O843        C853   1.279       .  A
O844       Ni851   1.909       .  S
O844        C854   1.278       .  A
O845       Ni851   1.910       .  S
O845        C855   1.279       .  A
O846       Ni851   1.910   1_455  S
O846        C856   1.279       .  A
O847       Ni852   1.925   1_455  S
O847        C856   1.281       .  A
O848       Ni852   1.926       .  S
O848        C855   1.281       .  A
O849       Ni852   1.927       .  S
O849        C854   1.282       .  A
O850       Ni852   1.928   1_455  S
O850        C853   1.282       .  A
Ni851      Ni852   2.394       .  S
C853       C1081   1.438       .  S
C854       C1142   1.437       .  S
C855       C1090   1.437       .  S
C856       C1133   1.437       .  S
O857       Ni865   1.909       .  S
O857        C867   1.278       .  A
O858       Ni865   1.908       .  S
O858        C868   1.278       .  A
O859       Ni865   1.908       .  S
O859        C869   1.278       .  A
O860       Ni865   1.909       .  S
O860        C870   1.279       .  A
O861       Ni866   1.925       .  S
O861        C870   1.281       .  A
O862       Ni866   1.925       .  S
O862        C869   1.281       .  A
O863       Ni866   1.925       .  S
O863        C868   1.281       .  A
O864       Ni866   1.926       .  S
O864        C867   1.281       .  A
Ni865      Ni866   2.394       .  S
C867       C1160   1.436       .  S
C868       C1131   1.435       .  S
C869       C1156   1.435       .  S
C870       C1136   1.436       .  S
O871       Ni879   1.929       .  S
O871        C881   1.282       .  A
O872       Ni879   1.930   1_554  S
O872        C882   1.282       .  A
O873       Ni879   1.929   1_554  S
O873        C883   1.282       .  A
O874       Ni879   1.928       .  S
O874        C884   1.282       .  A
O875       Ni880   1.911       .  S
O875        C884   1.279       .  A
O876       Ni880   1.912   1_554  S
O876        C883   1.279       .  A
O877       Ni880   1.911   1_554  S
O877        C882   1.279       .  A
O878       Ni880   1.911       .  S
O878        C881   1.279       .  A
Ni879      Ni880   2.393       .  S
C881       C1173   1.440       .  S
C882       C1150   1.441       .  S
C883       C1166   1.441       .  S
C884       C1158   1.440       .  S
O885       Ni893   1.928       .  S
O885        C895   1.282       .  A
O886       Ni893   1.928       .  S
O886        C896   1.282       .  A
O887       Ni893   1.926       .  S
O887        C897   1.281       .  A
O888       Ni893   1.926       .  S
O888        C898   1.281       .  A
O889       Ni894   1.910       .  S
O889        C898   1.279       .  A
O890       Ni894   1.910       .  S
O890        C897   1.279       .  A
O891       Ni894   1.909       .  S
O891        C896   1.278       .  A
O892       Ni894   1.910       .  S
O892        C895   1.279       .  A
Ni893      Ni894   2.394       .  S
C895       C1176   1.439       .  S
C896       C1180   1.437       .  S
C897       C1172   1.437       .  S
C898       C1184   1.437       .  S
O899       Ni907   1.927       .  S
O899        C909   1.281       .  A
O900       Ni907   1.926       .  S
O900        C910   1.281       .  A
O901       Ni907   1.929       .  S
O901        C911   1.282       .  A
O902       Ni907   1.930       .  S
O902        C912   1.282       .  A
O903       Ni908   1.909       .  S
O903        C912   1.278       .  A
O904       Ni908   1.908       .  S
O904        C911   1.278       .  A
O905       Ni908   1.909       .  S
O905        C910   1.279       .  A
O906       Ni908   1.910       .  S
O906        C909   1.279       .  A
Ni907      Ni908   2.393       .  S
C909       C1215   1.438       .  S
C910       C1163   1.437       .  S
C911       C1212   1.438       .  S
C912       C1167   1.439       .  S
O913       Ni921   1.909   1_545  S
O913        C923   1.279       .  A
O914       Ni921   1.908       .  S
O914        C924   1.278       .  A
O915       Ni921   1.908       .  S
O915        C925   1.278       .  A
O916       Ni921   1.909   1_545  S
O916        C926   1.278       .  A
O917       Ni922   1.926   1_545  S
O917        C926   1.281       .  A
O918       Ni922   1.925       .  S
O918        C925   1.281       .  A
O919       Ni922   1.925       .  S
O919        C924   1.281       .  A
O920       Ni922   1.925   1_545  S
O920        C923   1.281       .  A
Ni921      Ni922   2.394       .  S
C923       C1182   1.436       .  S
C924       C1234   1.435       .  S
C925       C1189   1.435       .  S
C926       C1225   1.437       .  S
O927       Ni935   1.909       .  S
O927        C937   1.279       .  A
O928       Ni935   1.909       .  S
O928        C938   1.279       .  A
O929       Ni935   1.909       .  S
O929        C939   1.279       .  A
O930       Ni935   1.910       .  S
O930        C940   1.279       .  A
O931       Ni936   1.921       .  S
O931        C940   1.280       .  A
O932       Ni936   1.922       .  S
O932        C939   1.280       .  A
O933       Ni936   1.922       .  S
O933        C938   1.280       .  A
O934       Ni936   1.923       .  S
O934        C937   1.280       .  A
Ni935      Ni936   2.395       .  S
C937       C1188   1.434       .  S
C938       C1208   1.434       .  S
C939       C1191   1.434       .  S
C940       C1204   1.434       .  S
O941       Ni949   1.909       .  S
O941        C951   1.279       .  A
O942       Ni949   1.910   1_554  S
O942        C952   1.279       .  A
O943       Ni949   1.910   1_554  S
O943        C953   1.279       .  A
O944       Ni949   1.909       .  S
O944        C954   1.279       .  A
O945       Ni950   1.924       .  S
O945        C954   1.281       .  A
O946       Ni950   1.924   1_554  S
O946        C953   1.281       .  A
O947       Ni950   1.926   1_554  S
O947        C952   1.281       .  A
O948       Ni950   1.925       .  S
O948        C951   1.281       .  A
Ni949      Ni950   2.394       .  S
C951       C1206   1.436       .  S
C952       C1145   1.437       .  S
C953       C1197   1.436       .  S
C954       C1154   1.435       .  S
O955       Ni963   1.926       .  S
O955        C965   1.281       .  A
O956       Ni963   1.925       .  S
O956        C966   1.281       .  A
O957       Ni963   1.921       .  S
O957        C967   1.280       .  A
O958       Ni963   1.921       .  S
O958        C968   1.280       .  A
O959       Ni964   1.909       .  S
O959        C968   1.279       .  A
O960       Ni964   1.910       .  S
O960        C967   1.279       .  A
O961       Ni964   1.910       .  S
O961        C966   1.279       .  A
O962       Ni964   1.909       .  S
O962        C965   1.278       .  A
Ni963      Ni964   2.394       .  S
C965       C1220   1.436       .  S
C966       C1199   1.436       .  S
C967       C1223   1.434       .  S
C968       C1196   1.433       .  S
O969       Ni977   1.910   1_545  S
O969        C979   1.279       .  A
O970       Ni977   1.909       .  S
O970        C980   1.279       .  A
O971       Ni977   1.909       .  S
O971        C981   1.279       .  A
O972       Ni977   1.910   1_545  S
O972        C982   1.279       .  A
O973       Ni978   1.927   1_545  S
O973        C982   1.282       .  A
O974       Ni978   1.927       .  S
O974        C981   1.282       .  A
O975       Ni978   1.927       .  S
O975        C980   1.281       .  A
O976       Ni978   1.927   1_545  S
O976        C979   1.282       .  A
Ni977      Ni978   2.393       .  S
C979       C1230   1.438       .  S
C980       C1222   1.437       .  S
C981       C1237   1.437       .  S
C982       C1214   1.438       .  S
O983       Ni991   1.925       .  S
O983        C993   1.281       .  A
O984       Ni991   1.924       .  S
O984        C994   1.281       .  A
O985       Ni991   1.925       .  S
O985        C995   1.281       .  A
O986       Ni991   1.925       .  S
O986        C996   1.281       .  A
O987       Ni992   1.910       .  S
O987        C996   1.279       .  A
O988       Ni992   1.909       .  S
O988        C995   1.279       .  A
O989       Ni992   1.909       .  S
O989        C994   1.279       .  A
O990       Ni992   1.910       .  S
O990        C993   1.279       .  A
Ni991      Ni992   2.394       .  S
C993       C1240   1.437       .  S
C994       C1244   1.435       .  S
C995       C1236   1.435       .  S
C996       C1248   1.437       .  S
O997      Ni1005   1.920       .  S
O997       C1007   1.280       .  A
O998      Ni1005   1.921   1_455  S
O998       C1008   1.280       .  A
O999      Ni1005   1.926   1_455  S
O999       C1009   1.281       .  A
O1000     Ni1005   1.926       .  S
O1000      C1010   1.281       .  A
O1001     Ni1006   1.908       .  S
O1001      C1010   1.278       .  A
O1002     Ni1006   1.909   1_455  S
O1002      C1009   1.279       .  A
O1003     Ni1006   1.910   1_455  S
O1003      C1008   1.279       .  A
O1004     Ni1006   1.909       .  S
O1004      C1007   1.279       .  A
Ni1005    Ni1006   2.395       .  S
C1007      C1253   1.432       .  S
C1008      C1098   1.434       .  S
C1009      C1246   1.437       .  S
C1010      C1105   1.436       .  S
O1011     Ni1019   1.919       .  S
O1011      C1021   1.280       .  A
O1012     Ni1019   1.919       .  S
O1012      C1022   1.280       .  A
O1013     Ni1019   1.921       .  S
O1013      C1023   1.280       .  A
O1014     Ni1019   1.922       .  S
O1014      C1024   1.280       .  A
O1015     Ni1020   1.907       .  S
O1015      C1024   1.278       .  A
O1016     Ni1020   1.908       .  S
O1016      C1023   1.279       .  A
O1017     Ni1020   1.908       .  S
O1017      C1022   1.279       .  A
O1018     Ni1020   1.907       .  S
O1018      C1021   1.279       .  A
Ni1019    Ni1020   2.396       .  S
C1021      C1255   1.431       .  S
C1022      C1268   1.432       .  S
C1023      C1252   1.433       .  S
C1024      C1272   1.432       .  S
O1025     Ni1033   1.910       .  S
O1025      C1035   1.279       .  A
O1026     Ni1033   1.911   1_545  S
O1026      C1036   1.279       .  A
O1027     Ni1033   1.911   1_545  S
O1027      C1037   1.279       .  A
O1028     Ni1033   1.909       .  S
O1028      C1038   1.279       .  A
O1029     Ni1034   1.926       .  S
O1029      C1038   1.281       .  A
O1030     Ni1034   1.926   1_545  S
O1030      C1037   1.281       .  A
O1031     Ni1034   1.924   1_545  S
O1031      C1036   1.281       .  A
O1032     Ni1034   1.923       .  S
O1032      C1035   1.280       .  A
Ni1033    Ni1034   2.394       .  S
C1035      C1270   1.435       .  S
C1036      C1209   1.437       .  S
C1037      C1262   1.438       .  S
C1038      C1217   1.437       .  S
O1039     Ni1047   1.910   1_655  S
O1039      C1049   1.279       .  A
O1040     Ni1047   1.909       .  S
O1040      C1050   1.279       .  A
O1041     Ni1047   1.908       .  S
O1041      C1051   1.279       .  A
O1042     Ni1047   1.909   1_655  S
O1042      C1052   1.279       .  A
O1043     Ni1048   1.922   1_655  S
O1043      C1052   1.280       .  A
O1044     Ni1048   1.923       .  S
O1044      C1051   1.280       .  A
O1045     Ni1048   1.921       .  S
O1045      C1050   1.280       .  A
O1046     Ni1048   1.920   1_655  S
O1046      C1049   1.280       .  A
Ni1047    Ni1048   2.395       .  S
C1049      C1250   1.433       .  S
C1050      C1130   1.433       .  S
C1051      C1242   1.434       .  S
C1052      C1138   1.434       .  S
O1053     Ni1061   1.909       .  S
O1053      C1063   1.279       .  A
O1054     Ni1061   1.909   1_545  S
O1054      C1064   1.279       .  A
O1055     Ni1061   1.909   1_545  S
O1055      C1065   1.279       .  A
O1056     Ni1061   1.909       .  S
O1056      C1066   1.279       .  A
O1057     Ni1062   1.922       .  S
O1057      C1066   1.280       .  A
O1058     Ni1062   1.922   1_545  S
O1058      C1065   1.280       .  A
O1059     Ni1062   1.922   1_545  S
O1059      C1064   1.280       .  A
O1060     Ni1062   1.922       .  S
O1060      C1063   1.280       .  A
Ni1061    Ni1062   2.395       .  S
C1063      C1186   1.434       .  S
C1064      C1258   1.434       .  S
C1065      C1178   1.434       .  S
C1066      C1266   1.434       .  S
O1067     Ni1075   1.922       .  S
O1067      C1077   1.280       .  A
O1068     Ni1075   1.922   1_554  S
O1068      C1078   1.280       .  A
O1069     Ni1075   1.920   1_554  S
O1069      C1079   1.280       .  A
O1070     Ni1075   1.920       .  S
O1070      C1080   1.280       .  A
O1071     Ni1076   1.908       .  S
O1071      C1080   1.279       .  A
O1072     Ni1076   1.907   1_554  S
O1072      C1079   1.278       .  A
O1073     Ni1076   1.907   1_554  S
O1073      C1078   1.278       .  A
O1074     Ni1076   1.908       .  S
O1074      C1077   1.279       .  A
Ni1075    Ni1076   2.395       .  S
C1077      C1201   1.433       .  S
C1078      C1114   1.432       .  S
C1079      C1194   1.431       .  S
C1080      C1122   1.432       .  S
C1081      C1082   1.208       .  T
C1083      C1084   1.209       .  T
C1085      C1086   1.208       .  T
C1087      C1088   1.209       .  T
C1089      C1090   1.207       .  T
C1091      C1092   1.207       .  T
C1093      C1094   1.207       .  T
C1095      C1096   1.206       .  T
C1097      C1098   1.206       .  T
C1099      C1100   1.207       .  T
C1101      C1102   1.208       .  T
C1103      C1104   1.208       .  T
C1105      C1106   1.206       .  T
C1107      C1108   1.207       .  T
C1109      C1110   1.208       .  T
C1111      C1112   1.207       .  T
C1113      C1114   1.204       .  T
C1115      C1116   1.206       .  T
C1117      C1118   1.208       .  T
C1119      C1120   1.207       .  T
C1121      C1122   1.204       .  T
C1123      C1124   1.206       .  T
C1125      C1126   1.206       .  T
C1127      C1128   1.205       .  T
C1129      C1130   1.205       .  T
C1131      C1132   1.206       .  T
C1133      C1134   1.207       .  T
C1135      C1136   1.206       .  T
C1137      C1138   1.205       .  T
C1139      C1140   1.205       .  T
C1141      C1142   1.207       .  T
C1143      C1144   1.206       .  T
C1145      C1146   1.207       .  T
C1147      C1148   1.207       .  T
C1149      C1150   1.209       .  T
C1151      C1152   1.208       .  T
C1153      C1154   1.206       .  T
C1155      C1156   1.206       .  T
C1157      C1158   1.209       .  T
C1159      C1160   1.207       .  T
C1161      C1162   1.207       .  T
C1163      C1164   1.207       .  T
C1165      C1166   1.210       .  T
C1167      C1168   1.208       .  T
C1169      C1170   1.207       .  T
C1171      C1172   1.207       .  T
C1173      C1174   1.209       .  T
C1175      C1176   1.208       .  T
C1177      C1178   1.205       .  T
C1179      C1180   1.207       .  T
C1181      C1182   1.206       .  T
C1183      C1184   1.207       .  T
C1185      C1186   1.205       .  T
C1187      C1188   1.206       .  T
C1189      C1190   1.206       .  T
C1191      C1192   1.205       .  T
C1193      C1194   1.204       .  T
C1195      C1196   1.205       .  T
C1197      C1198   1.207       .  T
C1199      C1200   1.207       .  T
C1201      C1202   1.205       .  T
C1203      C1204   1.206       .  T
C1205      C1206   1.207       .  T
C1207      C1208   1.205       .  T
C1209      C1210   1.207       .  T
C1211      C1212   1.208       .  T
C1213      C1214   1.208       .  T
C1215      C1216   1.208       .  T
C1217      C1218   1.207       .  T
C1219      C1220   1.207       .  T
C1221      C1222   1.207       .  T
C1223      C1224   1.206       .  T
C1225      C1226   1.207       .  T
C1227      C1228   1.209       .  T
C1229      C1230   1.208       .  T
C1231      C1232   1.209       .  T
C1233      C1234   1.206       .  T
C1235      C1236   1.206       .  T
C1237      C1238   1.207       .  T
C1239      C1240   1.207       .  T
C1241      C1242   1.205       .  T
C1243      C1244   1.206       .  T
C1245      C1246   1.207       .  T
C1247      C1248   1.207       .  T
C1249      C1250   1.205       .  T
C1251      C1252   1.204       .  T
C1253      C1254   1.204       .  T
C1255      C1256   1.203       .  T
C1257      C1258   1.205       .  T
C1259      C1260   1.206       .  T
C1261      C1262   1.208       .  T
C1263      C1264   1.207       .  T
C1265      C1266   1.205       .  T
C1267      C1268   1.204       .  T
C1269      C1270   1.206       .  T
C1271      C1272   1.204       .  T
