geometry optimzed in LAMMPS
_audit_creation_date              2020-11-30 
_audit_creation_method            'lammps2cif' 
_symmetry_space_group_name_H-M    'P1' 
_symmetry_Int_Tables_number       1 
_symmetry_cell_setting            triclinic 
loop_ 
_symmetry_equiv_pos_as_xyz 
  x,y,z 
_cell_length_a                    32.15186229 
_cell_length_b                    32.045456540568374 
_cell_length_c                    51.29917741819751 
_cell_angle_alpha                 90.02069339356122 
_cell_angle_beta                  90.57266345145756 
_cell_angle_gamma                 120.23116221845568 
loop_ 
_atom_site_label 
_atom_site_type_symbol 
_atom_site_fract_x 
_atom_site_fract_y 
_atom_site_fract_z 
_atom_site_charge 
O1          O  0.09337413  0.29809662  0.32734973    -0.88200
C2          C  0.19274124  0.35237367  0.27013995     0.87900
Mg3        Mg  0.08852868  0.34091833  0.35915513     1.58100
O4          O  0.19447033  0.27288510  0.31698434    -0.87900
O5          O  0.08232552  0.22778656  0.31603780    -0.75200
C6          C  0.30722479  0.44895861  0.41224285     0.92900
O7          O  0.14793258  0.40442843  0.30715814    -0.75000
O8          O  0.27178626  0.45663029  0.41284099    -0.82500
Mg9        Mg  0.09767178  0.32772871  0.28936208     1.58000
C10         C  0.32990933  0.32434174  0.34967982     0.92800
O11         O  0.04593791  0.25599796  0.26871484    -0.80800
H12         H  0.16359541  0.21008651  0.33604157    -0.06200
C13         C  0.28133416  0.41930339  0.33698990     0.87800
O14         O  0.11687065  0.30767488  0.38879624    -0.75300
O15         O  0.15748589  0.31874102  0.28072903    -0.88100
O16         O  0.29727304  0.29986766  0.33305033    -0.80900
C17         C  0.24341413  0.26049276  0.25667784     0.93000
C18         C  0.04612516  0.22418083  0.25386763     0.92800
Mg19       Mg  0.25395808  0.34490625  0.37710257     1.58000
O20         O  0.30607708  0.41623979  0.39763938    -0.80800
O21         O  0.20367339  0.26840750  0.35938963    -0.75100
O22         O  0.19832039  0.24643112  0.25567645    -0.80900
O23         O  0.02990858  0.32903229  0.29783743    -0.82600
O24         O  0.15445714  0.42540407  0.41108893    -0.80900
C25         C  0.18643398  0.24887020  0.33719909     0.87200
O26         O  0.19461919  0.35433278  0.38560941    -0.88100
O27         O  0.25897206  0.37498952  0.33915540    -0.88200
O28         O  0.27010626  0.44540687  0.35036900    -0.75200
Mg29       Mg  0.14161521  0.24464080  0.28580956     1.58000
O30         O  0.27056630  0.28945184  0.27440326    -0.82600
H31         H  0.04122151  0.23686525  0.34277761    -0.06300
O32         O  0.15803597  0.40029481  0.34953196    -0.87900
H33         H  0.18841484  0.46295814  0.33032845    -0.06200
H34         H  0.16505854  0.30152388  0.41197070    -0.06300
C35         C  0.16566839  0.42415416  0.32927296     0.87200
C36         C  0.07102883  0.25378843  0.32946573     0.87800
C37         C  0.15941888  0.32100204  0.39641531     0.87800
H38         H  0.31105272  0.43614434  0.32361922    -0.06300
O39         O  0.23523914  0.36569067  0.27784783    -0.75300
Mg40       Mg  0.21113890  0.42853341  0.38071833     1.58000
H41         H  0.18718097  0.37210781  0.25469666    -0.06300
C42         C  0.02216113  0.34790324  0.31742542     0.92800
O43         O  0.08219995  0.38403577  0.39211744    -0.82600
C44         C  0.10946211  0.41177018  0.41020302     0.92900
O45         O  0.08190390  0.21706968  0.25358893    -0.82600
Mg46       Mg  0.26396733  0.33245792  0.30732674     1.58200
O47         O  0.05627333  0.37380294  0.33301037    -0.80900
O48         O  0.32096804  0.34279265  0.36901732    -0.82600
C49         C  0.33950242  0.19146081  0.18681770     0.02500
C50         C  0.33407842  0.14445611  0.18615909     0.02400
C51         C  0.36170263  0.13500299  0.16831976    -0.18100
C52         C  0.39382725  0.17042990  0.15099551     0.02500
C53         C  0.39782435  0.21627108  0.15100906     0.02400
C54         C  0.37099264  0.22624070  0.16885096    -0.18100
H55         H  0.37394671  0.26145417  0.16832627     0.04500
H56         H  0.35856358  0.09970358  0.16810342     0.04500
C57         C  0.89012968  0.16116093  0.17881431     0.02500
C58         C  0.84357565  0.11999925  0.17929651     0.02400
C59         C  0.80821837  0.11626062  0.16144212    -0.18100
C60         C  0.81755492  0.15265609  0.14313549     0.02500
C61         C  0.86410309  0.19473022  0.14298325     0.02400
C62         C  0.89967881  0.19772038  0.16062938    -0.18100
H63         H  0.93504021  0.22992441  0.16084689     0.04500
H64         H  0.77282062  0.08410865  0.16167239     0.04500
O65         O  0.26180760  0.88877702  0.33970674    -0.88200
C66         C  0.15284743  0.81942909  0.39199062     0.87900
Mg67       Mg  0.26484456  0.93793365  0.30964287     1.58100
O68         O  0.16429591  0.74866435  0.34349454    -0.87900
O69         O  0.27380407  0.82836754  0.34715230    -0.75200
C70         C  0.04813489  0.81003650  0.25206287     0.92900
O71         O  0.19170740  0.92343998  0.36087208    -0.75000
O72         O  0.08087445  0.85476922  0.25295853    -0.82500
Mg73       Mg  0.24498881  0.90201306  0.37807382     1.58000
C74         C  0.03817264  0.65511617  0.30309135     0.92800
O75         O  0.30014616  0.88745633  0.39786052    -0.80800
H76         H  0.20337939  0.72644658  0.32415363    -0.06200
C77         C  0.07083680  0.79908644  0.32607047     0.87800
O78         O  0.24192277  0.87908204  0.27835811    -0.75300
O79         O  0.19045170  0.82811121  0.38116566    -0.88100
O80         O  0.06259630  0.66391239  0.32406177    -0.80900
C81         C  0.11636792  0.68161670  0.40251609     0.93000
C82         C  0.30476799  0.85541555  0.41000657     0.92800
Mg83       Mg  0.10868000  0.76416551  0.28385677     1.58000
O84         O  0.05274496  0.77832116  0.26457031    -0.80800
O85         O  0.16293793  0.74338802  0.30062744    -0.75100
O86         O  0.15904766  0.71826393  0.40463511    -0.80900
O87         O  0.30433113  0.97870824  0.37671363    -0.82600
O88         O  0.19657020  0.94979402  0.25682942    -0.80900
C89         C  0.17762682  0.73863202  0.32301774     0.87200
O90         O  0.16361787  0.83813763  0.28022017    -0.88100
O91         O  0.09378011  0.77817743  0.32237679    -0.88200
O92         O  0.08224051  0.83898026  0.31505091    -0.75200
Mg93       Mg  0.21478933  0.77699864  0.37562597     1.58000
O94         O  0.08864309  0.67737391  0.38354112    -0.82600
H95         H  0.31628046  0.88488399  0.32375400    -0.06300
O96         O  0.19190678  0.91935160  0.31799764    -0.87900
H97         H  0.15299724  0.94207882  0.33705566    -0.06200
H98         H  0.19990742  0.82385698  0.25364144    -0.06300
C99         C  0.17827036  0.92930784  0.33838172     0.87200
C100        C  0.28536763  0.86843852  0.33634946     0.87800
C101        C  0.20137087  0.84628005  0.26981030     0.87800
H102        H  0.04052543  0.78324174  0.33909085    -0.06300
O103        O  0.11226747  0.78619347  0.38372076    -0.75300
Mg104      Mg  0.14035193  0.89005857  0.28593874     1.58000
H105        H  0.15444293  0.84165523  0.40829860    -0.06300
C106        C  0.31814122  0.01181274  0.35990828     0.92800
O107        O  0.26732070  0.98803823  0.27796607    -0.82600
C108        C  0.23979310  0.98569650  0.25930014     0.92900
O109        O  0.27239272  0.81076741  0.40875564    -0.82600
Mg110      Mg  0.09132790  0.72835440  0.35205194     1.58200
O111        O  0.29910689  0.00413890  0.33723547    -0.80900
O112        O  0.04827897  0.68755295  0.28623282    -0.82600
O113        O  0.65260954  0.75260773  0.34355366    -0.88200
C114        C  0.69337930  0.86339779  0.39490442     0.87900
Mg115      Mg  0.69626992  0.75151021  0.31218956     1.58100
O116        O  0.60574787  0.84466091  0.34777665    -0.87900
O117        O  0.57931508  0.73575928  0.35194552    -0.75200
C118        C  0.77339113  0.96249395  0.25331217     0.92900
O119        O  0.75891020  0.82842665  0.36258277    -0.75000
O120        O  0.78836863  0.93246880  0.25525254    -0.82500
Mg121      Mg  0.68706927  0.77320998  0.38120040     1.58000
C122        C  0.63007779  0.96934438  0.30823144     0.92800
O123        O  0.62146484  0.71797865  0.40293309    -0.80800
H124        H  0.54240870  0.80363316  0.32974651    -0.06200
C125        C  0.74669458  0.94482057  0.32783205     0.87800
O126        O  0.65477571  0.76997443  0.28231296    -0.75300
O127        O  0.66393541  0.82423322  0.38501011    -0.88100
O128        O  0.61649194  0.94433609  0.32889766    -0.80900
C129        C  0.58928733  0.89341555  0.40684978     0.93000
C130        C  0.58360122  0.70922111  0.41497964     0.92800
Mg131      Mg  0.66962794  0.90118899  0.28702331     1.58000
O132        O  0.73660359  0.95623748  0.26571421    -0.80800
O133        O  0.59678618  0.84557667  0.30522995    -0.75100
O134        O  0.58271778  0.85060359  0.40895988    -0.80900
O135        O  0.70818162  0.71677916  0.37876641    -0.82600
O136        O  0.76994692  0.82070853  0.25877218    -0.80900
C137        C  0.58004376  0.83037882  0.32788236     0.87200
O138        O  0.69087306  0.84863052  0.28289746    -0.88100
O139        O  0.70272704  0.91901965  0.32476707    -0.88200
O140        O  0.77587338  0.93490113  0.31678561    -0.75200
Mg141      Mg  0.58688592  0.79519577  0.38015276     1.58000
O142        O  0.61209825  0.92034464  0.38783585    -0.82600
H143        H  0.59486717  0.69422955  0.32868899    -0.06300
O144        O  0.74890743  0.82596953  0.32001845    -0.87900
H145        H  0.81271387  0.86794757  0.33733625    -0.06200
H146        H  0.63725648  0.80862708  0.25783590    -0.06300
C147        C  0.77512001  0.84141338  0.33967069     0.87200
C148        C  0.60865586  0.72605107  0.34094391     0.87800
C149        C  0.66063793  0.80941895  0.27339295     0.87800
H150        H  0.76061878  0.97617199  0.34046283    -0.06300
O151        O  0.69923554  0.90281310  0.38595441    -0.75300
Mg152      Mg  0.76746567  0.87568364  0.28805829     1.58000
H153        H  0.71616988  0.86419815  0.41079912    -0.06300
C154        C  0.72681422  0.70423171  0.36100621     0.92800
O155        O  0.74074378  0.75009620  0.27901072    -0.82600
C156        C  0.76342453  0.77790763  0.26019718     0.92900
O157        O  0.56683678  0.73791522  0.41329271    -0.82600
Mg158      Mg  0.65737727  0.91934077  0.35546633     1.58200
O159        O  0.73423173  0.72242983  0.33829848    -0.80900
O160        O  0.65172603  0.96036019  0.29055004    -0.82600
C161        C  0.83904318  0.70381468  0.18198787     0.02500
C162        C  0.88427148  0.70615121  0.18240130     0.02400
C163        C  0.89157454  0.67634943  0.16494949    -0.18100
C164        C  0.85570050  0.64585362  0.14673390     0.02500
C165        C  0.81240423  0.64715574  0.14506788     0.02400
C166        C  0.80448545  0.67554080  0.16293458    -0.18100
H167        H  0.77045585  0.67495841  0.16228871     0.04500
H168        H  0.92548445  0.67674186  0.16561562     0.04500
O169        O  0.44628884  0.02877951  0.00788164    -0.88200
C170        C  0.51485974  0.98500263  0.05988957     0.87900
Mg171      Mg  0.39385976  0.98315509  0.97821944     1.58100
O172        O  0.58765584  0.06575102  0.01120933    -0.87900
O173        O  0.51057794  0.09960650  0.01478923    -0.75200
C174        C  0.50923925  0.88460747  0.92101421     0.92900
O175        O  0.40664358  0.92243232  0.02979122    -0.75000
O176        O  0.46547576  0.87458183  0.92237751    -0.82500
Mg177      Mg  0.43387677  0.99887385  0.04636271     1.58000
C178        C  0.67177092  0.02221393  0.96859951     0.92800
O179        O  0.45350541  0.06885866  0.06634985    -0.80800
H180        H  0.61210975  0.12759529  0.99169982    -0.06200
C181        C  0.52721967  0.91921989  0.99474196     0.87800
O182        O  0.45099144  0.01610557  0.94647586    -0.75300
O183        O  0.50714686  0.01461822  0.04881551    -0.88100
O184        O  0.66812108  0.03676664  0.99115630    -0.80900
C185        C  0.65623931  0.08315886  0.06969192     0.93000
C186        C  0.48630708  0.10521096  0.07849482     0.92800
Mg187      Mg  0.56226375  0.99190870  0.95203836     1.58000
O188        O  0.54282659  0.92052088  0.93310503    -0.80800
O189        O  0.58911478  0.06869900  0.96833559    -0.75100
O190        O  0.62096683  0.09105427  0.07209453    -0.80900
O191        O  0.35884435  0.98750405  0.04539570    -0.82600
O192        O  0.37630704  0.90055654  0.92633406    -0.80900
C193        C  0.59736240  0.08898299  0.99066068     0.87200
O194        O  0.48945644  0.97654773  0.94958422    -0.88100
O195        O  0.55074240  0.96317615  0.99067388    -0.88200
O196        O  0.48598083  0.89246943  0.98425992    -0.75200
Mg197      Mg  0.56139584  0.08990503  0.04339346     1.58000
O198        O  0.65762660  0.05774829  0.05093035    -0.82600
H199        H  0.45459895  0.08907532  0.99144344    -0.06300
O200        O  0.40930711  0.92647239  0.98702812    -0.87900
H201        H  0.38329550  0.86399288  0.00606102    -0.06200
H202        H  0.50455112  0.02620999  0.92206086    -0.06300
C203        C  0.39861010  0.90266068  0.00736903     0.87200
C204        C  0.46946079  0.07286901  0.00419163     0.87800
C205        C  0.48244767  0.00658854  0.93845497     0.87800
H206        H  0.54188984  0.90314182  0.00771775    -0.06300
O207        O  0.54704766  0.97649314  0.05190438    -0.75300
Mg208      Mg  0.43522425  0.90175854  0.95534847     1.58000
H209        H  0.49300398  0.96511110  0.07630084    -0.06300
C210        C  0.32470929  0.96918205  0.02882939     0.92800
O211        O  0.34054525  0.93552669  0.94666591    -0.82600
C212        C  0.34175565  0.90962033  0.92811311     0.92900
O213        O  0.53055036  0.11670411  0.07688332    -0.82600
Mg214      Mg  0.60386678  0.00938410  0.01986252     1.58200
O215        O  0.32969374  0.95511828  0.00643839    -0.80900
O216        O  0.63683021  0.00377262  0.95260825    -0.82600
O217        O  0.56336396  0.57575291  0.98666877    -0.88200
C218        C  0.48835028  0.46674702  0.93528212     0.87900
Mg219      Mg  0.61366663  0.57781603  0.01544435     1.58100
O220        O  0.42635760  0.48379494  0.98628943    -0.87900
O221        O  0.50637617  0.59312376  0.98174474    -0.75200
C222        C  0.48937435  0.36736836  0.07520198     0.92900
O223        O  0.59372698  0.50333555  0.96436539    -0.75000
O224        O  0.53392065  0.39924732  0.07332847    -0.82500
Mg225      Mg  0.57298662  0.55784121  0.94790853     1.58000
C226        C  0.33262428  0.35685646  0.02487695     0.92800
O227        O  0.55752792  0.61196936  0.92858733    -0.80800
H228        H  0.40412438  0.52279046  0.00591140    -0.06200
C229        C  0.47075895  0.38501238  0.00178952     0.87800
O230        O  0.55840897  0.55976685  0.04769925    -0.75300
O231        O  0.49900331  0.50554158  0.94584927    -0.88100
O232        O  0.34142000  0.38593716  0.00621576    -0.80900
C233        C  0.35420424  0.43623507  0.92848810     0.93000
C234        C  0.52621973  0.62033836  0.91851467     0.92800
Mg235      Mg  0.44136334  0.42652458  0.04452357     1.58000
O236        O  0.45694300  0.37169291  0.06324759    -0.80800
O237        O  0.42019828  0.48121583  0.02897902    -0.75100
O238        O  0.38976505  0.47934623  0.92684911    -0.80900
O239        O  0.64884330  0.61807800  0.94944182    -0.82600
O240        O  0.62612187  0.51195974  0.06793965    -0.80900
C241        C  0.41615807  0.49684815  0.00680748     0.87200
O242        O  0.51551339  0.48099349  0.04718259    -0.88100
O243        O  0.45292603  0.41068876  0.00581450    -0.88200
O244        O  0.51092802  0.39491967  0.01198325    -0.75200
Mg245      Mg  0.45126563  0.53374014  0.95441703     1.58000
O246        O  0.35124832  0.40828137  0.94683917    -0.82600
H247        H  0.56711900  0.63410612  0.00319953    -0.06300
O248        O  0.59075900  0.50377735  0.00725026    -0.87900
H249        H  0.61092664  0.46297101  0.98772828    -0.06200
H250        H  0.50520418  0.52095090  0.07343935    -0.06300
C251        C  0.59928130  0.48920998  0.98670101     0.87200
C252        C  0.54692379  0.60250381  0.99097147     0.87800
C253        C  0.52570003  0.52022475  0.05703941     0.87800
H254        H  0.45195270  0.35365046  0.98924206    -0.06300
O255        O  0.45637020  0.42690133  0.94461188    -0.75300
Mg256      Mg  0.56507352  0.45508920  0.03982264     1.58000
H257        H  0.50821819  0.46667172  0.91841711    -0.06300
C258        C  0.68138983  0.62925527  0.96655055     0.92800
O259        O  0.66535766  0.58137884  0.04645113    -0.82600
C260        C  0.66196976  0.55500969  0.06577712     0.92900
O261        O  0.48131868  0.59112966  0.92166576    -0.82600
Mg262      Mg  0.40242290  0.40971479  0.97723051     1.58200
O263        O  0.67452459  0.60234779  0.98610745    -0.80900
O264        O  0.36478090  0.36486206  0.04181396    -0.82600
O265        O  0.04000304  0.45410807  0.99223158    -0.88200
C266        C  0.98386304  0.50116342  0.93749883     0.87900
Mg267      Mg  0.99937348  0.41074269  0.02502100     1.58100
O268        O  0.07256444  0.58243156  0.98140322    -0.87900
O269        O  0.11067303  0.51003048  0.97961856    -0.75200
C270        C  0.91200819  0.53807721  0.07970376     0.92900
O271        O  0.93186427  0.40727597  0.97520533    -0.75000
O272        O  0.90173623  0.49392546  0.08126700    -0.82500
Mg273      Mg  0.00490244  0.42719252  0.95567784     1.58000
C274        C  0.03821065  0.67994845  0.01253178     0.92800
O275        O  0.07305523  0.44204769  0.93392037    -0.80800
H276        H  0.13794685  0.61317244  0.99810153    -0.06200
C277        C  0.93222687  0.53569559  0.00539282     0.87800
O278        O  0.04065048  0.47513847  0.05280965    -0.75300
O279        O  0.01789591  0.49764609  0.94631718    -0.88100
O280        O  0.05910332  0.66651564  0.99680655    -0.80900
C281        C  0.07899896  0.63992475  0.92056402     0.93000
C282        C  0.10566262  0.47266911  0.91904299     0.92800
Mg283      Mg  0.01196582  0.58243167  0.04272110     1.58000
O284        O  0.94481024  0.56799355  0.06471570    -0.80800
O285        O  0.08474574  0.60215843  0.02311511    -0.75100
O286        O  0.09090854  0.60735833  0.91904955    -0.80900
O287        O  0.99769819  0.35470944  0.96509360    -0.82600
O288        O  0.92238969  0.39859056  0.07950786    -0.80900
C289        C  0.09997664  0.59981123  0.00055312     0.87200
O290        O  0.99843304  0.51142237  0.05249343    -0.88100
O291        O  0.97636924  0.55458544  0.00642328    -0.88200
O292        O  0.90566775  0.49941535  0.01933703    -0.75200
Mg293      Mg  0.09372345  0.55323658  0.94966485     1.58000
O294        O  0.05463590  0.64134143  0.93940732    -0.82600
H295        H  0.10057612  0.45920303  0.00645501    -0.06300
O296        O  0.94314980  0.42616570  0.01706441    -0.87900
H297        H  0.87814580  0.39591984  0.99993602    -0.06200
H298        H  0.05620211  0.53306770  0.07567592    -0.06300
C299        C  0.91616483  0.40925099  0.99771261     0.87200
C300        C  0.08420339  0.47353262  0.99346780     0.87800
C301        C  0.03216906  0.50734468  0.06123327     0.87800
H302        H  0.91599052  0.55032752  0.99251266    -0.06300
O303        O  0.97464485  0.53285097  0.94592650    -0.75300
Mg304      Mg  0.92213731  0.45565457  0.04913235     1.58000
H305        H  0.96008266  0.47521957  0.92307025    -0.06300
C306        C  0.97657748  0.32804302  0.98439193     0.92800
O307        O  0.95913889  0.36581231  0.05858316    -0.82600
C308        C  0.93365714  0.36551891  0.07729640     0.92900
O309        O  0.11487534  0.51639952  0.91762965    -0.82600
Mg310      Mg  0.01615560  0.59743287  0.97341056     1.58200
O311        O  0.95737951  0.34125765  0.00139817    -0.80900
O312        O  0.01789076  0.65472789  0.03243252    -0.82600
O313        O  0.29420340  0.08204302  0.67092901    -0.88200
C314        C  0.33574176  0.19240936  0.72247829     0.87900
Mg315      Mg  0.33758483  0.08118562  0.63925698     1.58100
O316        O  0.24527080  0.16805055  0.67592927    -0.87900
O317        O  0.22065822  0.06095871  0.68110097    -0.75200
C318        C  0.40839432  0.29062638  0.58053027     0.92900
O319        O  0.40051429  0.15717096  0.68834056    -0.75000
O320        O  0.42429656  0.26117112  0.58090301    -0.82500
Mg321      Mg  0.32962433  0.10125844  0.70814945     1.58000
C322        C  0.26820608  0.29122093  0.63885147     0.92800
O323        O  0.26484921  0.04576595  0.73078022    -0.80800
H324        H  0.18125597  0.12483777  0.65899130    -0.06200
C325        C  0.38264224  0.27076467  0.65398677     0.87800
O326        O  0.29267972  0.09526680  0.60954697    -0.75300
O327        O  0.30681661  0.15249369  0.71307603    -0.88100
O328        O  0.24804120  0.25794182  0.65538742    -0.80900
C329        C  0.22854637  0.21779059  0.73520273     0.93000
C330        C  0.22824530  0.03842174  0.74373371     0.92800
Mg331      Mg  0.30470559  0.22519442  0.61420742     1.58000
O332        O  0.37070550  0.28152670  0.59292732    -0.80800
O333        O  0.23326343  0.16796643  0.63351657    -0.75100
O334        O  0.22550317  0.17656115  0.73749760    -0.80900
O335        O  0.34655087  0.04202662  0.70349484    -0.82600
O336        O  0.40989329  0.14865038  0.58452681    -0.80900
C337        C  0.21838424  0.15257496  0.65646771     0.87200
O338        O  0.32745169  0.17394187  0.60868997    -0.88100
O339        O  0.33893030  0.24255096  0.65187347    -0.88200
O340        O  0.41259162  0.26319024  0.64201145    -0.75200
Mg341      Mg  0.22915920  0.12137286  0.70879181     1.58000
O342        O  0.24815033  0.24437546  0.71551257    -0.82600
H343        H  0.23764630  0.02121179  0.65727389    -0.06300
O344        O  0.38817811  0.15594757  0.64595954    -0.87900
H345        H  0.45258039  0.19867329  0.66256609    -0.06200
H346        H  0.27279813  0.13154050  0.58469323    -0.06300
C347        C  0.41532000  0.17147753  0.66529031     0.87200
C348        C  0.25058350  0.05327709  0.66923629     0.87800
C349        C  0.29727949  0.13385175  0.60000900     0.87800
H350        H  0.39565352  0.30232788  0.66636194    -0.06300
O351        O  0.33910779  0.23090611  0.71356133    -0.75300
Mg352      Mg  0.40515583  0.20400968  0.61351184     1.58000
H353        H  0.35981446  0.19470887  0.73803091    -0.06300
C354        C  0.36594645  0.03289831  0.68469377     0.92800
O355        O  0.38086856  0.07922567  0.60598960    -0.82600
C356        C  0.40298291  0.10568557  0.58668887     0.92900
O357        O  0.21196169  0.06738654  0.74229680    -0.82600
Mg358      Mg  0.29380923  0.24293063  0.68298741     1.58200
O359        O  0.38226649  0.06124412  0.66546323    -0.80900
O360        O  0.28844416  0.28526063  0.61935955    -0.82600
C361        C  0.20015608  0.35886587  0.85141717     0.02500
C362        C  0.16071030  0.36687717  0.85052229     0.02400
C363        C  0.12303152  0.33998853  0.83262757    -0.18100
C364        C  0.12462009  0.30748280  0.81464597     0.02500
C365        C  0.16569442  0.30209297  0.81454161     0.02400
C366        C  0.20221296  0.32701667  0.83326191    -0.18100
H367        H  0.23345729  0.32248633  0.83330887     0.04500
H368        H  0.09150161  0.34398709  0.83298472     0.04500
C369        C  0.13902274  0.80342811  0.85145158     0.02500
C370        C  0.18543633  0.84534649  0.85155841     0.02400
C371        C  0.19517561  0.88167819  0.83322326    -0.18100
C372        C  0.15974682  0.87823069  0.81547958     0.02500
C373        C  0.11281656  0.83743509  0.81600773     0.02400
C374        C  0.10358226  0.80031051  0.83371011    -0.18100
H375        H  0.06832526  0.76799712  0.83337800     0.04500
H376        H  0.23062181  0.91376770  0.83313976     0.04500
O377        O  0.89738848  0.22589741  0.67932163    -0.88200
C378        C  0.79347528  0.16436189  0.73292346     0.87900
Mg379      Mg  0.89719813  0.27110816  0.64774157     1.58100
O380        O  0.80990137  0.09310666  0.68663636    -0.87900
O381        O  0.91834362  0.17327427  0.68998415    -0.75200
C382        C  0.68566055  0.13491341  0.58963422     0.92900
O383        O  0.82797665  0.26190088  0.69784004    -0.75000
O384        O  0.71749485  0.17987969  0.58991314    -0.82500
Mg385      Mg  0.88475120  0.24619316  0.71693572     1.58000
C386        C  0.68264248  0.99103120  0.65119707     0.92800
O387        O  0.94023334  0.23512476  0.73847720    -0.80800
H388        H  0.84994166  0.07035697  0.66873315    -0.06200
C389        C  0.70786008  0.13087208  0.66428986     0.87800
O390        O  0.87951776  0.21119123  0.61776470    -0.75300
O391        O  0.83248873  0.17272904  0.72401559    -0.88100
O392        O  0.71480301  0.00479589  0.66874426    -0.80900
C393        C  0.76186900  0.02814680  0.74613554     0.93000
C394        C  0.94977163  0.20685670  0.75120912     0.92800
Mg395      Mg  0.74789254  0.09452411  0.62517229     1.58000
O396        O  0.69022346  0.10454004  0.60364809    -0.80800
O397        O  0.80520732  0.07956709  0.64421041    -0.75100
O398        O  0.80552723  0.06307127  0.74849206    -0.80900
O399        O  0.94679978  0.32148541  0.71012983    -0.82600
O400        O  0.82925725  0.27644614  0.59353253    -0.80900
C401        C  0.82271260  0.08049667  0.66682575     0.87200
O402        O  0.80096544  0.16806718  0.61828801    -0.88100
O403        O  0.73548278  0.11489070  0.66243681    -0.88200
O404        O  0.71522693  0.16798155  0.65167915    -0.75200
Mg405      Mg  0.86025393  0.12303439  0.71895781     1.58000
O406        O  0.73547980  0.02596680  0.72706642    -0.82600
H407        H  0.95608025  0.22832982  0.66480766    -0.06300
O408        O  0.82369174  0.24824926  0.65546268    -0.87900
H409        H  0.78378026  0.27148963  0.67307206    -0.06200
H410        H  0.84022960  0.15400208  0.59361046    -0.06300
C411        C  0.81077442  0.26105768  0.67515227     0.87200
C412        C  0.92529765  0.21027385  0.67741114     0.87800
C413        C  0.83986971  0.17696711  0.60897388     0.87800
H414        H  0.67697151  0.11302196  0.67683835    -0.06300
O415        O  0.75384896  0.13115360  0.72355540    -0.75300
Mg416      Mg  0.77421806  0.21779719  0.62294253     1.58000
H417        H  0.79307034  0.18738593  0.74823328    -0.06300
C418        C  0.95267389  0.34705898  0.69023773     0.92800
O419        O  0.89862087  0.31836135  0.61528538    -0.82600
C420        C  0.87158428  0.31354153  0.59595082     0.92900
O421        O  0.92031094  0.16117785  0.75110888    -0.82600
Mg422      Mg  0.73643092  0.07083452  0.69413968     1.58200
O423        O  0.91824251  0.33482370  0.67430119    -0.80900
O424        O  0.68740007  0.01851020  0.63232845    -0.82600
O425        O  0.73597758  0.62929167  0.66283803    -0.88200
C426        C  0.83995777  0.67583916  0.60727917     0.87900
Mg427      Mg  0.73200761  0.67632454  0.69223088     1.58100
O428        O  0.84340752  0.59825197  0.65479141    -0.87900
O429        O  0.73076492  0.55945624  0.65530769    -0.75200
C430        C  0.95311128  0.78087844  0.74464666     0.92900
O431        O  0.79573868  0.73432061  0.63800058    -0.75000
O432        O  0.91915778  0.79072270  0.74334043    -0.82500
Mg433      Mg  0.74544828  0.65588934  0.62373893     1.58000
C434        C  0.97841498  0.64868432  0.69291579     0.92800
O435        O  0.69120430  0.58217563  0.60697464    -0.80800
H436        H  0.81000350  0.53695584  0.67506476    -0.06200
C437        C  0.92952078  0.74640270  0.67037426     0.87800
O438        O  0.76253492  0.64787446  0.72362211    -0.75300
O439        O  0.80488309  0.64449917  0.61905255    -0.88100
O440        O  0.95872089  0.63516067  0.67041128    -0.80900
C441        C  0.88835599  0.58487822  0.59394472     0.93000
C442        C  0.69126404  0.55069216  0.59198512     0.92800
Mg443      Mg  0.89785841  0.67408306  0.71322544     1.58000
O444        O  0.95088702  0.74566762  0.73208648    -0.80800
O445        O  0.84744262  0.59686689  0.69761423    -0.75100
O446        O  0.84359236  0.57236644  0.59391305    -0.80900
O447        O  0.68110616  0.66416314  0.62680747    -0.82600
O448        O  0.80345252  0.76340998  0.74141974    -0.80900
C449        C  0.83313448  0.57574402  0.67558657     0.87200
O450        O  0.83982084  0.68802707  0.71756723    -0.88100
O451        O  0.90952691  0.70255608  0.67453102    -0.88200
O452        O  0.91554699  0.77285314  0.68118504    -0.75200
Mg453      Mg  0.78802593  0.57110869  0.62431744     1.58000
O454        O  0.91751149  0.61238129  0.61159934    -0.82600
H455        H  0.68835309  0.56889755  0.68100111    -0.06300
O456        O  0.80249874  0.73401998  0.68069941    -0.87900
H457        H  0.83420641  0.79491154  0.65997827    -0.06200
H458        H  0.81035382  0.64093949  0.74670870    -0.06300
C459        C  0.81144032  0.75607299  0.65978959     0.87200
C460        C  0.71710552  0.58548798  0.66704027     0.87800
C461        C  0.80487460  0.65868249  0.73018590     0.87800
H462        H  0.95919457  0.76253937  0.65694739    -0.06300
O463        O  0.88246445  0.68769301  0.61413878    -0.75300
Mg464      Mg  0.85794606  0.76198461  0.71125516     1.58000
H465        H  0.83437396  0.69468411  0.59135248    -0.06300
C466        C  0.66529975  0.68121677  0.64367486     0.92800
O467        O  0.73039182  0.72671062  0.72267879    -0.82600
C468        C  0.75983369  0.75454102  0.74013273     0.92900
O469        O  0.72705935  0.54355425  0.59172814    -0.82600
Mg470      Mg  0.91386809  0.65792453  0.64418259     1.58200
O471        O  0.68723924  0.69782122  0.66538784    -0.80900
O472        O  0.96153991  0.66409194  0.71016639    -0.82600
C473        C  0.60373322  0.82417550  0.84870540     0.02500
C474        C  0.61135889  0.78449687  0.84917426     0.02400
C475        C  0.64448466  0.78333781  0.83185807    -0.18100
C476        C  0.67063124  0.82090816  0.81412570     0.02500
C477        C  0.66401341  0.86143091  0.81410991    -0.04200
C478        C  0.63030603  0.86212890  0.83127026    -0.18100
H479        H  0.62560170  0.89333811  0.83154325     0.04500
H480        H  0.64929434  0.75218294  0.83187364     0.04500
C481        C  0.02741804  0.53259090  0.48131003     0.02500
C482        C  0.02091660  0.48536887  0.48193246     0.02400
C483        C  0.98999793  0.45255901  0.50072061    -0.18100
C484        C  0.96615395  0.46531418  0.51924723     0.02500
C485        C  0.97317738  0.51278862  0.51893489     0.02400
C486        C  0.00318875  0.54516075  0.49969139    -0.18100
H487        H  0.00698203  0.58070038  0.49861188     0.04500
H488        H  0.98538594  0.41663989  0.50138385     0.04500
C489        C  0.46544246  0.50586736  0.48489643     0.02500
C490        C  0.51362342  0.54449237  0.48458320     0.02400
C491        C  0.54838700  0.54289975  0.50108545    -0.18100
C492        C  0.53624033  0.50413751  0.51838347     0.02500
C493        C  0.48767401  0.46590224  0.51885020     0.02400
C494        C  0.45322523  0.46750869  0.50222073    -0.18100
H495        H  0.41651709  0.43745466  0.50212130     0.04500
H496        H  0.58514795  0.57276551  0.50082537     0.04500
C497        C  0.46216930  0.95995140  0.48134051     0.02500
C498        C  0.51114801  0.97280291  0.48082450     0.02400
C499        C  0.54411148  0.00859118  0.49811284    -0.18100
C500        C  0.52964220  0.03191353  0.51608688     0.02500
C501        C  0.48077083  0.02004531  0.51619575     0.02400
C502        C  0.44784594  0.98392697  0.49892781    -0.18100
H503        H  0.41059513  0.97520927  0.49867107     0.04500
H504        H  0.58143016  0.01752325  0.49801594     0.04500
O505        O  0.06950336  0.98524065  0.98676168    -0.88200
C506        C  0.94011635  0.90104488  0.02272334     0.87900
Mg507      Mg  0.12125703  0.05597554  0.00015570     1.58100
O508        O  0.92938191  0.94267034  0.96075735    -0.87900
O509        O  0.02827669  0.94375286  0.95234669    -0.75200
C510        C  0.98942354  0.15873324  0.00588979     0.92900
O511        O  0.04466942  0.98289070  0.04832441    -0.75000
O512        O  0.02843931  0.16268968  0.01442539    -0.82500
Mg513      Mg  0.04157527  0.93119944  0.01626545     1.58000
C514        C  0.84148343  0.00728236  0.95830390     0.92800
O515        O  0.04440411  0.87889300  0.98744158    -0.80800
H516        H  0.93943792  0.94767316  0.92219433    -0.06200
C517        C  0.93041637  0.01927673  0.02472315     0.87800
O518        O  0.09524514  0.08866381  0.96821106    -0.75300
O519        O  0.97055925  0.91483724  0.00546211    -0.88100
O520        O  0.83678699  0.96549504  0.96142924    -0.80900
C521        C  0.83359936  0.82569137  0.97518738     0.93000
C522        C  0.00998022  0.83701307  0.98224279     0.92800
Mg523      Mg  0.95620361  0.06282997  0.97131400     1.58000
O524        O  0.95474243  0.11826536  0.99852417    -0.80800
O525        O  0.95264480  0.01003233  0.93984062    -0.75100
O526        O  0.87606189  0.83283326  0.97706331    -0.80900
O527        O  0.11453536  0.94692599  0.02707949    -0.82600
O528        O  0.12441478  0.16229116  0.01248220    -0.80900
C529        C  0.93984570  0.96556139  0.94018792     0.87200
O530        O  0.02795586  0.08020090  0.98253297    -0.88100
O531        O  0.92816173  0.00930033  0.00125800    -0.88200
O532        O  0.96952999  0.05098778  0.03555420    -0.75200
Mg533      Mg  0.95127525  0.88991435  0.96640879     1.58000
O534        O  0.82456135  0.86015235  0.97497238    -0.82600
H535        H  0.09896085  0.99575318  0.95144995    -0.06300
O536        O  0.06799444  0.05053876  0.02762338    -0.87900
H537        H  0.05738476  0.04495940  0.06615792    -0.06200
H538        H  0.05531769  0.11133729  0.94829561    -0.06300
C539        C  0.05725268  0.02733779  0.04811322     0.87200
C540        C  0.06720476  0.97583807  0.96319436     0.87800
C541        C  0.05904138  0.09421248  0.96561970     0.87800
H542        H  0.89847998  0.00005851  0.03641986    -0.06300
O543        O  0.90372407  0.90632562  0.02054156    -0.75300
Mg544      Mg  0.04709931  0.10417996  0.02198106     1.58000
H545        H  0.94470157  0.88451877  0.04005967    -0.06300
C546        C  0.15482562  0.98477327  0.03074106     0.92800
O547        O  0.17324269  0.13175133  0.01456805    -0.82600
C548        C  0.16619781  0.16745475  0.01489968     0.92900
O549        O  0.96985268  0.83102644  0.97433964    -0.82600
Mg550      Mg  0.87654482  0.93746619  0.98854446     1.58200
O551        O  0.16020477  0.02680865  0.02748795    -0.80900
O552        O  0.88195855  0.04552352  0.96095528    -0.82600
O553        O  0.69246579  0.26741690  0.35230433    -0.88200
C554        C  0.74875972  0.36471203  0.29293976     0.87900
Mg555      Mg  0.61686914  0.22129000  0.35564872     1.58100
O556        O  0.74678442  0.41685174  0.35292986    -0.87900
O557        O  0.74835177  0.32599185  0.37598107    -0.75200
C558        C  0.51966458  0.35627366  0.33741060     0.92900
O559        O  0.65460108  0.25613527  0.29223512    -0.75000
O560        O  0.51550793  0.31598863  0.33164828    -0.82500
Mg561      Mg  0.72277717  0.27089409  0.31422936     1.58000
C562        C  0.70634823  0.51856751  0.35699030     0.92800
O563        O  0.79493181  0.28161112  0.33011749    -0.80800
H564        H  0.76832136  0.43237456  0.39016038    -0.06200
C565        C  0.64128130  0.39168229  0.30225832     0.87800
O566        O  0.61159644  0.27337289  0.38438413    -0.75300
O567        O  0.74934667  0.34717416  0.31431187    -0.88100
O568        O  0.73648152  0.51075670  0.34518095    -0.80900
C569        C  0.85190870  0.49146206  0.31518149     0.93000
C570        C  0.83512108  0.31778381  0.33714860     0.92800
Mg571      Mg  0.63183496  0.40338315  0.36119005     1.58000
O572        O  0.55946668  0.39255598  0.34493163    -0.80800
O573        O  0.69998419  0.41758106  0.38314013    -0.75100
O574        O  0.84473836  0.45100608  0.32335438    -0.80900
O575        O  0.69168618  0.18985640  0.31351912    -0.82600
O576        O  0.50902199  0.22217577  0.35119808    -0.80900
C577        C  0.74002687  0.42333712  0.37583212     0.87200
O578        O  0.60483257  0.32694607  0.36104997    -0.88100
O579        O  0.66263382  0.40707547  0.32331764    -0.88200
O580        O  0.60730427  0.34844502  0.29943780    -0.75200
Mg581      Mg  0.79189825  0.38755509  0.34776426     1.58000
O582        O  0.81867359  0.50198774  0.31490456    -0.82600
H583        H  0.70198246  0.25958573  0.39014876    -0.06300
O584        O  0.60836396  0.25732380  0.32255541    -0.87900
H585        H  0.58605011  0.24086389  0.28549095    -0.06200
H586        H  0.60208443  0.32614576  0.39997270    -0.06300
C587        C  0.61464816  0.25032480  0.29967755     0.87200
C588        C  0.71412313  0.28283402  0.37329074     0.87800
C589        C  0.60540847  0.30938724  0.38240915     0.87800
H590        H  0.65358356  0.41500996  0.28543477    -0.06300
O591        O  0.74288160  0.40091957  0.29096099    -0.75300
Mg592      Mg  0.56313818  0.28655669  0.32737408     1.58000
H593        H  0.75183716  0.34779777  0.27537320    -0.06300
C594        C  0.64961758  0.15559976  0.31902243     0.92800
O595        O  0.53650691  0.17240679  0.35979179    -0.82600
C596        C  0.50235637  0.18159488  0.35889599     0.92900
O597        O  0.83978351  0.35827811  0.34293115    -0.82600
Mg598      Mg  0.73822237  0.45302774  0.31988732     1.58200
O599        O  0.61921802  0.16296787  0.33087949    -0.80900
O600        O  0.66376054  0.48476863  0.36206533    -0.82600
O601        O  0.26367258  0.69272476  0.66378872    -0.88200
C602        C  0.37960180  0.74172936  0.71120034     0.87900
Mg603      Mg  0.20688135  0.61989662  0.66576976     1.58100
O604        O  0.39118337  0.71712036  0.64540509    -0.87900
O605        O  0.31018513  0.74335966  0.63476669    -0.75200
C606        C  0.30179240  0.48120424  0.66262914     0.92900
O607        O  0.26588733  0.66059773  0.72228904    -0.75000
O608        O  0.26668344  0.48335585  0.67220899    -0.82500
Mg609      Mg  0.28346442  0.73053217  0.70025269     1.58000
C610        C  0.47327097  0.65220495  0.63447420     0.92800
O611        O  0.30323509  0.80580589  0.68413145    -0.80800
H612        H  0.39265703  0.73109545  0.60729980    -0.06200
C613        C  0.37297430  0.61164775  0.69558122     0.87800
O614        O  0.23520269  0.59917463  0.62992067    -0.75300
O615        O  0.35592655  0.74537828  0.69305639    -0.88100
O616        O  0.46725901  0.68809954  0.63654777    -0.80900
C617        C  0.49941458  0.82022298  0.66844458     0.93000
C618        C  0.34060085  0.84258638  0.67506468     0.92800
Mg619      Mg  0.35835654  0.59280372  0.63799413     1.58000
O620        O  0.33987150  0.51875492  0.65488673    -0.80800
O621        O  0.37508060  0.66210756  0.61554047    -0.75100
O622        O  0.46163185  0.82342752  0.66907484    -0.80900
O623        O  0.20447390  0.71338511  0.70437341    -0.82600
O624        O  0.17900721  0.49919943  0.66899032    -0.80900
C625        C  0.38667874  0.70488890  0.62221790     0.87200
O626        O  0.28589396  0.57774660  0.64496055    -0.88100
O627        O  0.37852979  0.63141027  0.67431252    -0.88200
O628        O  0.33147224  0.58027737  0.70307098    -0.75200
Mg629      Mg  0.38375879  0.77753750  0.65500766     1.58000
O630        O  0.49746673  0.77982620  0.66817781    -0.82600
H631        H  0.23766579  0.70240125  0.63017615    -0.06300
O632        O  0.24981237  0.60568476  0.69237220    -0.87900
H633        H  0.24749453  0.59136459  0.73046711    -0.06200
H634        H  0.26881612  0.57366876  0.60708362    -0.06300
C635        C  0.25396800  0.61775739  0.71556791     0.87200
C636        C  0.26879912  0.71254632  0.64258750     0.87800
C637        C  0.26330106  0.58249894  0.62662108     0.87800
H638        H  0.40382504  0.62206241  0.70826671    -0.06300
O639        O  0.40857745  0.72615532  0.70761957    -0.75300
Mg640      Mg  0.25754759  0.54529857  0.68283623     1.58000
H641        H  0.37464124  0.75093004  0.73076464    -0.06300
C642        C  0.16765011  0.67098511  0.70334392     0.92800
O643        O  0.14528209  0.54479111  0.66742894    -0.82600
C644        C  0.14198723  0.50380907  0.66774486     0.92900
O645        O  0.37501241  0.83966364  0.66515446    -0.82600
Mg646      Mg  0.43560634  0.70436012  0.67148274     1.58200
O647        O  0.17290223  0.63473381  0.70034503    -0.80900
O648        O  0.43703378  0.60955097  0.63361228    -0.82600
C649        C  0.03318327  0.61447286  0.69054108    -0.21100
C650        C  0.02489098  0.65132754  0.69852065    -0.09200
C651        C  0.06303751  0.69344532  0.71003622     0.29700
C652        C  0.10909755  0.69924643  0.71243535    -0.21100
C653        C  0.11782275  0.66276875  0.70398675    -0.09200
C654        C  0.07882614  0.61959522  0.69360570     0.29700
F655        F  0.08507386  0.58305809  0.68507799    -0.19700
H656        H  0.00442817  0.58192539  0.68158333     0.18100
H657        H  0.13818855  0.73278723  0.72031905     0.18100
F658        F  0.05657193  0.73044543  0.71743455    -0.19700
C659        C  0.60440277  0.70556079  0.65339813    -0.21100
C660        C  0.61805352  0.67766614  0.63870675    -0.09200
C661        C  0.58375874  0.64197092  0.62155874     0.29700
C662        C  0.53663986  0.63367698  0.61996219    -0.21100
C663        C  0.52317024  0.66141957  0.63487908    -0.09200
C664        C  0.55771034  0.69787204  0.65141081     0.29700
F665        F  0.54558969  0.72437545  0.66687856    -0.19700
H666        H  0.62958289  0.73262808  0.66697380     0.18100
H667        H  0.51062489  0.60539799  0.60721364     0.18100
F668        F  0.59482081  0.61324825  0.60730157    -0.19700
C669        C  0.70442358  0.78553112  0.75087672    -0.21100
C670        C  0.74207796  0.77773508  0.75878676    -0.09200
C671        C  0.76049365  0.79094365  0.78437445     0.29700
C672        C  0.73892247  0.80773649  0.80206079    -0.21100
C673        C  0.69985185  0.81329508  0.79432513    -0.09200
C674        C  0.68376921  0.80336193  0.76831039     0.29700
F675        F  0.64584987  0.80775885  0.76018692    -0.19700
H676        H  0.69007945  0.77673942  0.73118014     0.18100
H677        H  0.75161494  0.81486362  0.82209154     0.18100
F678        F  0.79741971  0.78512549  0.79273866    -0.19700
C679        C  0.65561569  0.52309988  0.54682830    -0.21100
C680        C  0.64902332  0.52578486  0.57372257    -0.09200
C681        C  0.60311239  0.51535982  0.58218122     0.29700
C682        C  0.56619721  0.50606850  0.56420476    -0.21100
C683        C  0.57374803  0.50683003  0.53723996    -0.09200
C684        C  0.61850723  0.51395446  0.52874923     0.29700
F685        F  0.62692299  0.51373883  0.50289816    -0.19700
H686        H  0.69054872  0.53155139  0.53966210     0.18100
H687        H  0.53234463  0.50080907  0.57138979     0.18100
F688        F  0.59475170  0.51697171  0.60795437    -0.19700
C689        C  0.95774372  0.59260377  0.56840164    -0.21100
C690        C  0.90808375  0.56668849  0.57343521    -0.09200
C691        C  0.87950618  0.52230826  0.56032809     0.29700
C692        C  0.90053255  0.50447725  0.54286710    -0.21100
C693        C  0.95038368  0.53041428  0.53811369    -0.09200
C694        C  0.97861371  0.57496034  0.55105218     0.29700
F695        F  0.02688924  0.60120024  0.54737751    -0.19700
H696        H  0.98085981  0.62673868  0.57816646     0.18100
H697        H  0.87776269  0.47046231  0.53293739     0.18100
F698        F  0.83162968  0.49537350  0.56499308    -0.19700
C699        C  0.59451859  0.94241236  0.64481979    -0.21100
C700        C  0.63692934  0.94536163  0.65441431    -0.09200
C701        C  0.63382974  0.90736994  0.66964045     0.29700
C702        C  0.58887131  0.86685178  0.67468742    -0.21100
C703        C  0.54645838  0.86450912  0.66543625    -0.09200
C704        C  0.54974016  0.90281174  0.65047988     0.29700
F705        F  0.50974592  0.90137339  0.64051383    -0.19700
H706        H  0.59586088  0.97160184  0.63350097     0.18100
H707        H  0.58713932  0.83740293  0.68591368     0.18100
F708        F  0.67409141  0.90925899  0.67949443    -0.19700
C709        C  0.08796713  0.42252202  0.68559052    -0.21100
C710        C  0.09374346  0.46079739  0.66984397    -0.09200
C711        C  0.05263690  0.46082715  0.66015846     0.29700
C712        C  0.00666002  0.42393978  0.66696309    -0.21100
C713        C  0.00104783  0.38716096  0.68395786    -0.09200
C714        C  0.04220365  0.38622377  0.69277549     0.29700
F715        F  0.03835919  0.34986425  0.70804894    -0.19700
H716        H  0.11905559  0.42185353  0.69341995     0.18100
H717        H  0.97545368  0.42452933  0.65927179     0.18100
F718        F  0.05694745  0.49679781  0.64440927    -0.19700
C719        C  0.68840027  0.95784380  0.76431677    -0.21100
C720        C  0.73898153  0.98751367  0.76515256    -0.09200
C721        C  0.76527434  0.97461830  0.78221001     0.29700
C722        C  0.74116546  0.93273327  0.79763464    -0.21100
C723        C  0.69063154  0.90341783  0.79642472    -0.09200
C724        C  0.66464411  0.91662402  0.77961427     0.29700
F725        F  0.61594321  0.88918608  0.77776882    -0.19700
H726        H  0.66667970  0.96625097  0.75149664     0.18100
H727        H  0.76182328  0.92350346  0.81078761     0.18100
F728        F  0.81398848  0.00167459  0.78362557    -0.19700
C729        C  0.59947477  0.07445860  0.57976558    -0.21100
C730        C  0.64275123  0.11528164  0.57198710    -0.09200
C731        C  0.64606989  0.13181941  0.54625478     0.29700
C732        C  0.60803623  0.10606291  0.52838475    -0.21100
C733        C  0.56564867  0.06417015  0.53599919    -0.09200
C734        C  0.56125980  0.04932248  0.56206995     0.29700
F735        F  0.52148581  0.00830946  0.56992169    -0.19700
H736        H  0.59599955  0.06072067  0.59939051     0.18100
H737        H  0.61236692  0.11767283  0.50828416     0.18100
F738        F  0.68742374  0.17039448  0.53778945    -0.19700
C739        C  0.89863088  0.38316170  0.53192073    -0.21100
C740        C  0.93724683  0.42872372  0.53941644    -0.09200
C741        C  0.95161067  0.43671013  0.56573652     0.29700
C742        C  0.92892333  0.39945856  0.58388181    -0.21100
C743        C  0.89125784  0.35323458  0.57634713    -0.09200
C744        C  0.87547243  0.34586868  0.55018921     0.29700
F745        F  0.83947989  0.30208027  0.54196636    -0.19700
H746        H  0.88727563  0.37611937  0.51167198     0.18100
H747        H  0.94175860  0.40661094  0.60389720     0.18100
F748        F  0.98942450  0.47966357  0.57367172    -0.19700
C749        C  0.98985708  0.80956565  0.78915150    -0.21100
C750        C  0.99579296  0.80733158  0.76218650    -0.09200
C751        C  0.04167662  0.81932149  0.75302179     0.29700
C752        C  0.07996424  0.83108739  0.77044268    -0.21100
C753        C  0.07353881  0.83099079  0.79748963    -0.09200
C754        C  0.02817580  0.82090849  0.80666639     0.29700
F755        F  0.02039122  0.82015367  0.83266173    -0.19700
H756        H  0.95468200  0.79913765  0.79678486     0.18100
H757        H  0.11404878  0.83783663  0.76279958     0.18100
F758        F  0.04872774  0.81697289  0.72713919    -0.19700
C759        C  0.02227889  0.28132306  0.76805712    -0.21100
C760        C  0.99584754  0.23039017  0.76672398    -0.09200
C761        C  0.01451417  0.20470554  0.77997821     0.29700
C762        C  0.05764039  0.22971236  0.79469586    -0.21100
C763        C  0.08277115  0.28057469  0.79643343    -0.09200
C764        C  0.06485992  0.30595534  0.78251790     0.29700
F765        F  0.08836429  0.35499183  0.78315251    -0.19700
H766        H  0.00973894  0.30280447  0.75808528     0.18100
H767        H  0.07060284  0.20929937  0.80540725     0.18100
F768        F  0.99110920  0.15575696  0.77896924    -0.19700
C769        C  0.31409208  0.37998107  0.63329886    -0.21100
C770        C  0.27471620  0.33924341  0.64424526    -0.09200
C771        C  0.24636940  0.34570837  0.66266548     0.29700
C772        C  0.25684740  0.39217223  0.66950295    -0.21100
C773        C  0.29601083  0.43301352  0.65835310    -0.09200
C774        C  0.32501604  0.42640155  0.64038152     0.29700
F775        F  0.36313647  0.46454987  0.62900366    -0.19700
H776        H  0.33729927  0.37600856  0.61958285     0.18100
H777        H  0.23370209  0.39611402  0.68327152     0.18100
F778        F  0.20829944  0.30725397  0.67387729    -0.19700
C779        C  0.33232982  0.94881734  0.70041225    -0.21100
C780        C  0.36411731  0.98600593  0.68383375    -0.09200
C781        C  0.38760677  0.97533210  0.66418437     0.29700
C782        C  0.37881211  0.92832064  0.66110677    -0.21100
C783        C  0.34613191  0.89096702  0.67728211    -0.09200
C784        C  0.32309685  0.90171278  0.69711490     0.29700
F785        F  0.29239936  0.86706573  0.71368429    -0.19700
H786        H  0.31321821  0.95575458  0.71549988     0.18100
H787        H  0.39749488  0.92108374  0.64589166     0.18100
F788        F  0.41847707  0.00997160  0.64766390    -0.19700
C789        C  0.15487749  0.94851309  0.79706616    -0.21100
C790        C  0.17375654  0.91738723  0.79621572    -0.09200
C791        C  0.20788246  0.92463579  0.77734757     0.29700
C792        C  0.22380285  0.96300407  0.76003269    -0.21100
C793        C  0.20657617  0.99564889  0.76121868    -0.09200
C794        C  0.17120625  0.98754551  0.77975871     0.29700
F795        F  0.15346924  0.01789473  0.78172093    -0.19700
H796        H  0.12840705  0.94322963  0.81155969     0.18100
H797        H  0.25051002  0.96749279  0.74588126     0.18100
F798        F  0.22595629  0.89448480  0.77573488    -0.19700
C799        C  0.20232323  0.27554576  0.74967016    -0.21100
C800        C  0.20855642  0.23601383  0.75549232    -0.09200
C801        C  0.19628999  0.21567382  0.78058164     0.29700
C802        C  0.18020099  0.23588709  0.79949539    -0.21100
C803        C  0.17496175  0.27585483  0.79360141    -0.09200
C804        C  0.18571758  0.29518421  0.76841733     0.29700
F805        F  0.18275863  0.33486196  0.76237389    -0.19700
H806        H  0.21108725  0.29202374  0.73058466     0.18100
H807        H  0.17285958  0.22107335  0.81898688     0.18100
F808        F  0.20148915  0.17753656  0.78719492    -0.19700
C809        C  0.46145303  0.11438299  0.55140004    -0.21100
C810        C  0.42156667  0.08485197  0.56703050    -0.09200
C811        C  0.40164542  0.03427785  0.56541495     0.29700
C812        C  0.42177831  0.01419848  0.54927869    -0.21100
C813        C  0.46214279  0.04349776  0.53412673    -0.09200
C814        C  0.48158588  0.09397020  0.53505854     0.29700
F815        F  0.51926683  0.12342202  0.51978164    -0.19700
H816        H  0.47761532  0.15328501  0.55219144     0.18100
H817        H  0.40570261  0.97527237  0.54865575     0.18100
F818        F  0.36231145  0.00376680  0.57940333    -0.19700
C819        C  0.41477509  0.36900114  0.56806263    -0.21100
C820        C  0.43217561  0.33663100  0.56542830    -0.09200
C821        C  0.47068927  0.34901805  0.54832571     0.29700
C822        C  0.48997952  0.39196528  0.53380439    -0.21100
C823        C  0.47119525  0.42310390  0.53605283    -0.09200
C824        C  0.43380051  0.41141100  0.55360368     0.29700
F825        F  0.41537554  0.44103494  0.55666172    -0.19700
H826        H  0.38568858  0.36137570  0.58123241     0.18100
H827        H  0.51869968  0.40028550  0.52023444     0.18100
F828        F  0.48889066  0.31929664  0.54510769    -0.19700
C829        C  0.93733707  0.24087029  0.99621529    -0.21100
C830        C  0.97847311  0.28374461  0.98870495    -0.09200
C831        C  0.02316650  0.28587195  0.98827988     0.29700
C832        C  0.02662258  0.24569906  0.99536949    -0.21100
C833        C  0.98542455  0.20228021  0.00229405    -0.09200
C834        C  0.94047568  0.19998036  0.00240605     0.29700
F835        F  0.89973565  0.15842442  0.00861053    -0.19700
H836        H  0.90278061  0.23899408  0.99703742     0.18100
H837        H  0.06144399  0.24812929  0.99464972     0.18100
F838        F  0.06382141  0.32739020  0.98186633    -0.19700
C839        C  0.98647298  0.71614797  0.00694134    -0.21100
C840        C  0.03244118  0.72137947  0.00568192    -0.09200
C841        C  0.07029217  0.76347806  0.99479374     0.29700
C842        C  0.06247978  0.80051677  0.98631681    -0.21100
C843        C  0.01640356  0.79529699  0.98756177    -0.09200
C844        C  0.97822360  0.75235768  0.99763006     0.29700
F845        F  0.93336184  0.74615362  0.99952445    -0.19700
H846        H  0.95654660  0.68333888  0.01459374     0.18100
H847        H  0.09254196  0.83348932  0.97892071     0.18100
F848        F  0.11492629  0.76915303  0.99284748    -0.19700
C849        C  0.06786065  0.70351963  0.89951216    -0.21100
C850        C  0.09388443  0.67898436  0.90093235    -0.09200
C851        C  0.13614080  0.69654408  0.88620888     0.29700
C852        C  0.15167311  0.73779856  0.87056134    -0.21100
C853        C  0.12547935  0.76219850  0.86948367    -0.09200
C854        C  0.08343650  0.74452869  0.88421918     0.29700
F855        F  0.05758224  0.76744048  0.88413958    -0.19700
H856        H  0.03545945  0.69142694  0.91073324     0.18100
H857        H  0.18385306  0.75041870  0.85909905     0.18100
F858        F  0.16320861  0.67502765  0.88759376    -0.19700
C859        C  0.13537082  0.46376551  0.87550699    -0.21100
C860        C  0.13047489  0.45424546  0.90234616    -0.09200
C861        C  0.14143244  0.41985154  0.91234078     0.29700
C862        C  0.15401297  0.39348021  0.89563630    -0.21100
C863        C  0.15573464  0.40062481  0.86860266    -0.09200
C864        C  0.14750874  0.43697088  0.85873178     0.29700
F865        F  0.14919974  0.44506938  0.83268706    -0.19700
H866        H  0.12660397  0.48957470  0.86729783     0.18100
H867        H  0.15985048  0.36559858  0.90371729     0.18100
F868        F  0.13778618  0.41016810  0.93825004    -0.19700
C869        C  0.28244464  0.27239723  0.04045974    -0.21100
C870        C  0.28630419  0.31072183  0.02526522    -0.09200
C871        C  0.24871704  0.30176519  0.00765439     0.29700
C872        C  0.20931971  0.25512419  0.00469954    -0.21100
C873        C  0.20721205  0.21656252  0.01873053    -0.09200
C874        C  0.24350260  0.22565792  0.03708862     0.29700
F875        F  0.24118521  0.18940698  0.05185613    -0.19700
H876        H  0.31072588  0.27804736  0.05413781     0.18100
H877        H  0.18114892  0.24880598  0.99077292     0.18100
F878        F  0.25067361  0.33755171  0.99261559    -0.19700
C879        C  0.72412647  0.71331668  0.94993175    -0.21100
C880        C  0.72483560  0.67751285  0.96556520    -0.09200
C881        C  0.76286087  0.69097799  0.98352048     0.29700
C882        C  0.79768285  0.73949804  0.98672771    -0.21100
C883        C  0.79496408  0.77535608  0.97236025    -0.09200
C884        C  0.75868306  0.76191842  0.95341330     0.29700
F885        F  0.75714756  0.79557819  0.93801044    -0.19700
H886        H  0.69545686  0.70406127  0.93581279     0.18100
H887        H  0.82649568  0.74924533  0.00084628     0.18100
F888        F  0.76564858  0.65758435  0.99854606    -0.19700
C889        C  0.59457853  0.69840542  0.90346411    -0.21100
C890        C  0.54483683  0.66463324  0.90226988    -0.09200
C891        C  0.51596407  0.67288220  0.88454585     0.29700
C892        C  0.53723589  0.71285391  0.86770315    -0.21100
C893        C  0.58734659  0.74477494  0.86829379    -0.09200
C894        C  0.61557472  0.73760354  0.88666327     0.29700
F895        F  0.66384983  0.76840080  0.88813885    -0.19700
H896        H  0.61793776  0.69399432  0.91713884     0.18100
H897        H  0.51491258  0.71808423  0.85365604     0.18100
F898        F  0.46785155  0.64163377  0.88276477    -0.19700
C899        C  0.30745582  0.44886827  0.89269609    -0.21100
C900        C  0.31475393  0.41738692  0.90872327    -0.09200
C901        C  0.28315135  0.36720830  0.90605997     0.29700
C902        C  0.24582930  0.34923518  0.88772458    -0.21100
C903        C  0.23862909  0.38043070  0.87167218    -0.09200
C904        C  0.26958873  0.43059760  0.87432012     0.29700
F905        F  0.26399864  0.46172637  0.85877608    -0.19700
H906        H  0.33095154  0.48758436  0.89443234     0.18100
H907        H  0.22242727  0.31049113  0.88589306     0.18100
F908        F  0.28870679  0.33508541  0.92076382    -0.19700
C909        C  0.71146022  0.97758248  0.95326900    -0.21100
C910        C  0.71579532  0.02145279  0.96163039    -0.09200
C911        C  0.76169853  0.06183055  0.96511694     0.29700
C912        C  0.80255394  0.05772086  0.96136674    -0.21100
C913        C  0.79842719  0.01280580  0.95502598    -0.09200
C914        C  0.75221500  0.97292904  0.95035980     0.29700
F915        F  0.74611447  0.92893457  0.94431294    -0.19700
H916        H  0.67616293  0.94594709  0.95051491     0.18100
H917        H  0.83745775  0.08924579  0.96519790     0.18100
F918        F  0.76702176  0.10484786  0.97271832    -0.19700
C919        C  0.28199087  0.01064311  0.04506340    -0.21100
C920        C  0.27961563  0.96880734  0.03462882    -0.09200
C921        C  0.23496602  0.93046966  0.02641393     0.29700
C922        C  0.19396171  0.93488812  0.02743191    -0.21100
C923        C  0.19679938  0.97825662  0.03581388    -0.09200
C924        C  0.24114538  0.01575980  0.04530892     0.29700
F925        F  0.24551846  0.05793359  0.05377277    -0.19700
H926        H  0.31627781  0.04083401  0.05135584     0.18100
H927        H  0.16043124  0.90521569  0.01990254     0.18100
F928        F  0.23131784  0.88946921  0.01647200    -0.19700
C929        C  0.25784277  0.88871517  0.91470198    -0.21100
C930        C  0.30084322  0.88923971  0.90862920    -0.09200
C931        C  0.30349260  0.87070660  0.88410977     0.29700
C932        C  0.26521020  0.85469984  0.86590517    -0.21100
C933        C  0.22293787  0.85533474  0.87198708    -0.09200
C934        C  0.21943065  0.87184926  0.89675992     0.29700
F935        F  0.17955152  0.87372665  0.90319997    -0.19700
H936        H  0.25396431  0.90196167  0.93341479     0.18100
H937        H  0.26887649  0.84257570  0.84680903     0.18100
F938        F  0.34356118  0.86952040  0.87731604    -0.19700
C939        C  0.50839038  0.84680121  0.87797306    -0.21100
C940        C  0.52435034  0.85721989  0.90401658    -0.09200
C941        C  0.56264833  0.85057317  0.91220281     0.29700
C942        C  0.58623712  0.83681079  0.89439074    -0.21100
C943        C  0.57261055  0.82984777  0.86800534    -0.09200
C944        C  0.53260901  0.83363926  0.86001080     0.29700
F945        F  0.51841421  0.82673165  0.83461067    -0.19700
H946        H  0.47956977  0.85233987  0.87110858     0.18100
H947        H  0.61706771  0.83432845  0.90092847     0.18100
F948        F  0.57913537  0.86016063  0.93722002    -0.19700
C949        C  0.88267384  0.54900416  0.12310858    -0.21100
C950        C  0.88851443  0.55827748  0.09623138    -0.09200
C951        C  0.88030638  0.59442958  0.08598338     0.29700
C952        C  0.86855440  0.62181783  0.10235049    -0.21100
C953        C  0.86478289  0.61405572  0.12931893    -0.09200
C954        C  0.87126464  0.57688487  0.13956865     0.29700
F955        F  0.86767100  0.56837063  0.16559322    -0.19700
H956        H  0.88967776  0.52214576  0.13156732     0.18100
H957        H  0.86409489  0.65039265  0.09402607     0.18100
F958        F  0.88544376  0.60455001  0.06011306    -0.19700
C959        C  0.74092845  0.57227708  0.12611563    -0.21100
C960        C  0.77559925  0.62155595  0.12421718    -0.09200
C961        C  0.77329032  0.64789955  0.10301748     0.29700
C962        C  0.73687005  0.62563546  0.08417262    -0.21100
C963        C  0.70113403  0.57648520  0.08606417    -0.09200
C964        C  0.70387588  0.54980178  0.10725569     0.29700
F965        F  0.67078782  0.50228203  0.10991235    -0.19700
H966        H  0.74207731  0.55150722  0.14246286     0.18100
H967        H  0.73639591  0.64747994  0.06820645     0.18100
F968        F  0.80629876  0.69555285  0.10065891    -0.19700
C969        C  0.59855762  0.02098519  0.32514066    -0.21100
C970        C  0.62509410  0.01275592  0.30628555    -0.09200
C971        C  0.65401676  0.05039337  0.28903775     0.29700
C972        C  0.65990479  0.09631389  0.29245581    -0.21100
C973        C  0.63649230  0.10542427  0.31269860    -0.09200
C974        C  0.60393591  0.06674516  0.32830186     0.29700
F975        F  0.58040301  0.07387328  0.34808506    -0.19700
H976        H  0.57588673  0.99276739  0.33861736     0.18100
H977        H  0.68447217  0.12533963  0.27991306     0.18100
F978        F  0.67981867  0.04421387  0.27021123    -0.19700
C979        C  0.75566633  0.60644243  0.34773921    -0.21100
C980        C  0.72057851  0.56910143  0.36303945    -0.09200
C981        C  0.69624424  0.58034952  0.38185827     0.29700
C982        C  0.70340229  0.62701203  0.38334862    -0.21100
C983        C  0.73373535  0.66267630  0.36563291    -0.09200
C984        C  0.76193768  0.65278701  0.34880106     0.29700
F985        F  0.79296215  0.68680498  0.33206599    -0.19700
H986        H  0.77564263  0.59898086  0.33341966     0.18100
H987        H  0.68183440  0.63387369  0.39682105     0.18100
F988        F  0.66360420  0.54578031  0.39778858    -0.19700
C989        C  0.56080104  0.98021671  0.44246882    -0.21100
C990        C  0.52965444  0.95106275  0.46195163    -0.09200
C991        C  0.51838761  0.90267377  0.46374988     0.29700
C992        C  0.53831711  0.88399758  0.44617041    -0.21100
C993        C  0.56951646  0.91321942  0.42642202    -0.09200
C994        C  0.58027058  0.96177391  0.42480292     0.29700
F995        F  0.60968621  0.99195093  0.40614334    -0.19700
H996        H  0.56990173  0.01760014  0.44085777     0.18100
H997        H  0.52906475  0.84661691  0.44791176     0.18100
F998        F  0.48888261  0.87385574  0.48276472    -0.19700
C999        C  0.52970754  0.65914732  0.45210316    -0.21100
C1000       C  0.56141353  0.66522648  0.43181148    -0.09200
C1001       C  0.57507111  0.62985465  0.42867240     0.29700
C1002       C  0.55968830  0.59145071  0.44602084    -0.21100
C1003       C  0.52898005  0.58592066  0.46646821    -0.09200
C1004       C  0.51338912  0.61966741  0.46922910     0.29700
F1005       F  0.48363772  0.61522662  0.48895093    -0.19700
H1006       H  0.51853229  0.68549835  0.45511317     0.18100
H1007       H  0.57145269  0.56545597  0.44331044     0.18100
F1008       F  0.60342897  0.63205961  0.40869293    -0.19700
C1009       C  0.80528258  0.78672051  0.21735674    -0.21100
C1010       C  0.78372329  0.75982742  0.23999743    -0.09200
C1011       C  0.78281885  0.71560444  0.24350662     0.29700
C1012       C  0.80255681  0.69902408  0.22490827    -0.21100
C1013       C  0.82412930  0.72590795  0.20253383    -0.09200
C1014       C  0.82497254  0.76972218  0.19865459     0.29700
F1015       F  0.84386758  0.79542344  0.17657232    -0.19700
H1016       H  0.80643937  0.82063898  0.21396767     0.18100
H1017       H  0.80021398  0.66439735  0.22775042     0.18100
F1018       F  0.76279742  0.68792357  0.26488115    -0.19700
C1019       C  0.44589812  0.10168878  0.37834880    -0.21100
C1020       C  0.45287100  0.14281257  0.36492760    -0.09200
C1021       C  0.41242537  0.14320170  0.35422375     0.29700
C1022       C  0.36721318  0.10115971  0.35423240    -0.21100
C1023       C  0.36129316  0.05886342  0.36571261    -0.09200
C1024       C  0.40051648  0.06021250  0.37900957     0.29700
F1025       F  0.39635101  0.01995594  0.39026974    -0.19700
H1026       H  0.47618048  0.10061344  0.38706900     0.18100
H1027       H  0.33736746  0.10091893  0.34408540     0.18100
F1028       F  0.41706257  0.18269359  0.34179385    -0.19700
C1029       C  0.98725894  0.56917206  0.31582851    -0.21100
C1030       C  0.99389239  0.60769680  0.29999578    -0.09200
C1031       C  0.95428670  0.60362567  0.28570890     0.29700
C1032       C  0.90818294  0.56433945  0.28972323    -0.21100
C1033       C  0.90104812  0.52800376  0.30739160    -0.09200
C1034       C  0.94137241  0.52946951  0.31940990     0.29700
F1035       F  0.93616508  0.49488632  0.33652388    -0.19700
H1036       H  0.01715304  0.57128606  0.32689918     0.18100
H1037       H  0.87774754  0.56341881  0.27988953     0.18100
F1038       F  0.95911764  0.63962549  0.26980042    -0.19700
C1039       C  0.04216608  0.55826994  0.43443668    -0.21100
C1040       C  0.05566147  0.56879895  0.46077374    -0.09200
C1041       C  0.09194600  0.61606685  0.46760439     0.29700
C1042       C  0.11304898  0.65220365  0.44856606    -0.21100
C1043       C  0.09772396  0.64230767  0.42238878    -0.09200
C1044       C  0.06268212  0.59444414  0.41546562     0.29700
F1045       F  0.04774672  0.58255620  0.39031540    -0.19700
H1046       H  0.01409332  0.52238457  0.42868160     0.18100
H1047       H  0.14000961  0.68843512  0.45449050     0.18100
F1048       F  0.10608119  0.62757038  0.49287627    -0.19700
C1049       C  0.43075820  0.93768340  0.43564843    -0.21100
C1050       C  0.42584423  0.92566699  0.46215567    -0.09200
C1051       C  0.38310689  0.88476566  0.47047925     0.29700
C1052       C  0.34483399  0.85844439  0.45282747    -0.21100
C1053       C  0.34843075  0.87305787  0.42674285    -0.09200
C1054       C  0.39252684  0.91181933  0.41812077     0.29700
F1055       F  0.39765073  0.92647300  0.39293366    -0.19700
H1056       H  0.46311357  0.96912926  0.42881302     0.18100
H1057       H  0.31122935  0.82905362  0.45997639     0.18100
F1058       F  0.37751130  0.87190325  0.49596325    -0.19700
C1059       C  0.00681135  0.80409654  0.20894815    -0.21100
C1060       C  0.00389627  0.79158186  0.23540000    -0.09200
C1061       C  0.95970025  0.75367999  0.24462413     0.29700
C1062       C  0.92047337  0.72749933  0.22760554    -0.21100
C1063       C  0.92406246  0.73828407  0.20093917    -0.09200
C1064       C  0.96746378  0.77750208  0.19182436     0.29700
F1065       F  0.97241905  0.78885022  0.16612785    -0.19700
H1066       H  0.04050617  0.83235184  0.20118433     0.18100
H1067       H  0.88800160  0.69712231  0.23511134     0.18100
F1068       F  0.95512743  0.74045778  0.27004865    -0.19700
C1069       C  0.87471384  0.30793708  0.11090982    -0.21100
C1070       C  0.91606455  0.32350131  0.09558682    -0.09200
C1071       C  0.93801427  0.29468543  0.09541438     0.29700
C1072       C  0.91921280  0.25215689  0.10981917    -0.21100
C1073       C  0.87817115  0.23654944  0.12507923    -0.09200
C1074       C  0.85593976  0.26492208  0.12556183     0.29700
F1075       F  0.81708882  0.25192296  0.14079572    -0.19700
H1076       H  0.85655194  0.32864663  0.11127738     0.18100
H1077       H  0.93745117  0.23148692  0.10938705     0.18100
F1078       F  0.97824063  0.30752870  0.08136384    -0.19700
C1079       C  0.74299069  0.11147882  0.08060685    -0.21100
C1080       C  0.69810780  0.10483250  0.08850854    -0.09200
C1081       C  0.69452161  0.11850675  0.11414561     0.29700
C1082       C  0.73426191  0.13652549  0.13145880    -0.21100
C1083       C  0.77875747  0.14248657  0.12350227    -0.09200
C1084       C  0.78272847  0.13010918  0.09776026     0.29700
F1085       F  0.82430097  0.13335457  0.08962680    -0.19700
H1086       H  0.74731225  0.10161699  0.06104219     0.18100
H1087       H  0.72995836  0.14462114  0.15141575     0.18100
F1088       F  0.65212646  0.11237189  0.12290595    -0.19700
C1089       C  0.77833480  0.03710943  0.23532800    -0.21100
C1090       C  0.79628360  0.00501312  0.23554432    -0.09200
C1091       C  0.83284897  0.01306011  0.21780681     0.29700
C1092       C  0.84943022  0.05134107  0.19987559    -0.21100
C1093       C  0.82950451  0.08165892  0.19923484    -0.09200
C1094       C  0.79427978  0.07446621  0.21735933     0.29700
F1095       F  0.77504320  0.10369857  0.21760593    -0.19700
H1096       H  0.75075117  0.03278803  0.24879135     0.18100
H1097       H  0.87682375  0.05654167  0.18602545     0.18100
F1098       F  0.85155240  0.98340465  0.21723238    -0.19700
C1099       C  0.40477773  0.24763829  0.10607492    -0.21100
C1100       C  0.42571754  0.25256323  0.13075066    -0.09200
C1101       C  0.47135121  0.29294256  0.13602858     0.29700
C1102       C  0.49452580  0.32897116  0.11708150    -0.21100
C1103       C  0.47220852  0.32512715  0.09276444    -0.09200
C1104       C  0.42782287  0.28302044  0.08717170     0.29700
F1105       F  0.40551543  0.27696008  0.06369381    -0.19700
H1106       H  0.36956440  0.21694324  0.10171188     0.18100
H1107       H  0.52837055  0.36108026  0.12197443     0.18100
F1108       F  0.49250151  0.29836448  0.15977489    -0.19700
C1109       C  0.40250996  0.14350099  0.10678460    -0.21100
C1110       C  0.42099920  0.15820416  0.13203800    -0.09200
C1111       C  0.46501550  0.16118355  0.13880088     0.29700
C1112       C  0.48892085  0.14754552  0.12074897    -0.21100
C1113       C  0.46924813  0.13098237  0.09568834    -0.09200
C1114       C  0.42647460  0.13073067  0.08872586     0.29700
F1115       F  0.40673095  0.11639821  0.06453408    -0.19700
H1116       H  0.36878899  0.14102526  0.10114706     0.18100
H1117       H  0.52128260  0.14753775  0.12679344     0.18100
F1118       F  0.48400521  0.17585125  0.16308450    -0.19700
C1119       C  0.31692149  0.11232300  0.23163115    -0.21100
C1120       C  0.30413469  0.10562837  0.20514846    -0.09200
C1121       C  0.26733966  0.05965379  0.19665829     0.29700
C1122       C  0.24491270  0.02100783  0.21431206    -0.21100
C1123       C  0.25955978  0.02714525  0.24064233    -0.09200
C1124       C  0.29529684  0.07376803  0.24913714     0.29700
F1125       F  0.30996422  0.08219919  0.27446736    -0.19700
H1126       H  0.34536947  0.14711573  0.23859744     0.18100
H1127       H  0.21749373  0.98586793  0.20717963     0.18100
F1128       F  0.25393317  0.05189006  0.17113668    -0.19700
C1129       C  0.43839330  0.32808961  0.31959549    -0.21100
C1130       C  0.47495440  0.35778675  0.33736777    -0.09200
C1131       C  0.46406091  0.37817054  0.35853159     0.29700
C1132       C  0.41659009  0.36651833  0.36261077    -0.21100
C1133       C  0.37942972  0.33456508  0.34561244    -0.09200
C1134       C  0.39105235  0.31644301  0.32359460     0.29700
F1135       F  0.35677707  0.28657063  0.30620785    -0.19700
H1136       H  0.44616352  0.31175624  0.30325343     0.18100
H1137       H  0.40888078  0.38197345  0.37936913     0.18100
F1138       F  0.49840380  0.40606391  0.37639442    -0.19700
C1139       C  0.96488549  0.35659229  0.34583698    -0.21100
C1140       C  0.97289719  0.33688249  0.32329516    -0.09200
C1141       C  0.93308443  0.30369223  0.30803961     0.29700
C1142       C  0.88672352  0.29319667  0.31441289    -0.21100
C1143       C  0.87947707  0.31572361  0.33588101    -0.09200
C1144       C  0.91866419  0.34611447  0.35212793     0.29700
F1145       F  0.91250183  0.36754638  0.37342046    -0.19700
H1146       H  0.99451780  0.38087995  0.35845642     0.18100
H1147       H  0.85700098  0.27013945  0.30150102     0.18100
F1148       F  0.93880246  0.28221981  0.28663953    -0.19700
C1149       C  0.11635945  0.47096640  0.44528480    -0.21100
C1150       C  0.08761953  0.42963694  0.42982938    -0.09200
C1151       C  0.03703777  0.40751098  0.43182443     0.29700
C1152       C  0.01624804  0.42651919  0.44836248    -0.21100
C1153       C  0.04479519  0.46815505  0.46336624    -0.09200
C1154       C  0.09525412  0.49007688  0.46187734     0.29700
F1155       F  0.12409406  0.52923977  0.47689380    -0.19700
H1156       H  0.15523168  0.48898348  0.44424464     0.18100
H1157       H  0.97735700  0.40854084  0.44945264     0.18100
F1158       F  0.00720504  0.36714345  0.41785560    -0.19700
C1159       C  0.38562263  0.49944598  0.47343928    -0.21100
C1160       C  0.42831797  0.50131795  0.46542011    -0.09200
C1161       C  0.43271361  0.49256370  0.43904184     0.29700
C1162       C  0.39442454  0.47971074  0.42149455    -0.21100
C1163       C  0.35055015  0.47508327  0.42966054    -0.09200
C1164       C  0.34720920  0.48693107  0.45571595     0.29700
F1165       F  0.30557302  0.48250282  0.46459623    -0.19700
H1166       H  0.38130888  0.50571965  0.49371338     0.18100
H1167       H  0.39816585  0.47060009  0.40165228     0.18100
F1168       F  0.47256649  0.49248693  0.43063355    -0.19700
C1169       C  0.97160326  0.17320314  0.19154125    -0.21100
C1170       C  0.92779819  0.16960418  0.19878063    -0.09200
C1171       C  0.92171487  0.17833810  0.22490105     0.29700
C1172       C  0.95929657  0.19239586  0.24305649    -0.21100
C1173       C  0.00402883  0.19820379  0.23573151    -0.09200
C1174       C  0.00930927  0.18694603  0.20986025     0.29700
F1175       F  0.05196171  0.19276233  0.20178012    -0.19700
H1176       H  0.97710775  0.16685462  0.17146420     0.18100
H1177       H  0.95412838  0.20105864  0.26274486     0.18100
F1178       F  0.88051781  0.17649661  0.23250520    -0.19700
C1179       C  0.31663564  0.26690274  0.23582459    -0.21100
C1180       C  0.26608878  0.24229238  0.23769846    -0.09200
C1181       C  0.23947348  0.19890612  0.22332277     0.29700
C1182       C  0.26313700  0.18135997  0.20745506    -0.21100
C1183       C  0.31372664  0.20656091  0.20556586    -0.09200
C1184       C  0.34004445  0.24951292  0.22013429     0.29700
F1185       F  0.38888081  0.27478001  0.21936823    -0.19700
H1186       H  0.33855920  0.29998563  0.24674787     0.18100
H1187       H  0.24185910  0.14845564  0.19629635     0.18100
F1188       F  0.19079761  0.17284827  0.22500832    -0.19700
loop_ 
_geom_bond_atom_site_label_1 
_geom_bond_atom_site_label_2 
_geom_bond_distance 
_geom_bond_site_symmetry_2 
_ccdc_geom_bond_type 
O1           Mg3   2.188       .  S
O1           Mg9   2.143       .  S
O1           C36   1.232       .  S
C2           O15   1.235       .  S
C2           O39   1.268       .  A
C2           H41   1.082       .  S
Mg3          O32   2.145       .  S
Mg3          O47   2.249       .  S
Mg3          O43   2.258       .  S
Mg3          O14   2.287       .  S
O4          Mg46   2.147       .  S
O4          Mg29   2.159       .  S
O4           C25   1.241       .  S
O5           C36   1.269       .  A
O5          Mg29   2.314       .  S
C6            O8   1.282       .  A
C6           O20   1.274       .  A
C6         C1163   1.497       .  S
O7           C35   1.279       .  A
O7           Mg9   2.336       .  S
O8          Mg40   2.344       .  S
Mg9          O15   2.134       .  S
Mg9          O23   2.247       .  S
Mg9          O11   2.299       .  S
C10          O48   1.262       .  A
C10          O16   1.264       .  A
C10        C1133   1.472       .  S
O11          C18   1.275       .  A
H12          C25   1.080       .  S
C13          O27   1.233       .  S
C13          O28   1.269       .  A
C13          H38   1.081       .  S
O14          C37   1.268       .  A
O15         Mg29   2.179       .  S
O16         Mg46   2.253       .  S
C17          O30   1.272       .  A
C17          O22   1.284       .  A
C17        C1180   1.504       .  S
C18          O45   1.281       .  A
C18        C1173   1.493       .  S
Mg19         O26   2.126       .  S
Mg19         O27   2.144       .  S
Mg19         O20   2.291       .  S
Mg19         O21   2.330       .  S
Mg19         O48   2.232       .  S
O21          C25   1.278       .  A
O22         Mg29   2.381       .  S
O23          C42   1.262       .  A
O24          C44   1.284       .  A
O24         Mg40   2.373       .  S
O26         Mg40   2.175       .  S
O26          C37   1.235       .  S
O27         Mg46   2.185       .  S
O28         Mg40   2.310       .  S
Mg29         O45   2.329       .  S
O30         Mg46   2.258       .  S
H31          C36   1.081       .  S
O32         Mg40   2.164       .  S
O32          C35   1.242       .  S
H33          C35   1.080       .  S
H34          C37   1.082       .  S
O39         Mg46   2.289       .  S
C42          O47   1.263       .  A
C42        C1140   1.473   1_455  S
O43          C44   1.272       .  A
C44        C1150   1.501       .  S
C49        C1183   1.505       .  S
C49          C50   1.427       .  A
C49          C54   1.414       .  A
C50        C1120   1.496       .  S
C50          C51   1.416       .  A
C51          H56   1.084       .  S
C51          C52   1.408       .  A
C52        C1110   1.491       .  S
C52          C53   1.409       .  A
C53        C1100   1.485       .  S
C53          C54   1.406       .  A
C54          H55   1.084       .  S
C57        C1170   1.495       .  S
C57          C58   1.412       .  A
C57          C62   1.408       .  A
C58        C1093   1.487       .  S
C58          C59   1.410       .  A
C59          H64   1.085       .  S
C59          C60   1.409       .  A
C60        C1083   1.497       .  S
C60          C61   1.423       .  A
C61        C1073   1.498       .  S
C61          C62   1.416       .  A
C62          H63   1.084       .  S
O65         Mg67   2.172       .  S
O65         Mg73   2.144       .  S
O65         C100   1.236       .  S
C66          O79   1.234       .  S
C66         O103   1.267       .  A
C66         H105   1.082       .  S
Mg67         O96   2.157       .  S
Mg67        O111   2.309   1_565  S
Mg67        O107   2.258       .  S
Mg67         O78   2.291       .  S
O68        Mg110   2.146       .  S
O68         Mg93   2.154       .  S
O68          C89   1.240       .  S
O69         C100   1.272       .  A
O69         Mg93   2.314       .  S
C70          O72   1.282       .  A
C70          O84   1.272       .  A
C70        C1060   1.494       .  S
O71          C99   1.275       .  A
O71         Mg73   2.311       .  S
O72        Mg104   2.357       .  S
Mg73         O79   2.129       .  S
Mg73         O87   2.229       .  S
Mg73         O75   2.278       .  S
C74         O112   1.265       .  A
C74          O80   1.270       .  A
C74        C1030   1.476   1_455  S
O75          C82   1.272       .  A
H76          C89   1.080       .  S
C77          O91   1.237       .  S
C77          O92   1.273       .  A
C77         H102   1.081       .  S
O78         C101   1.267       .  A
O79         Mg93   2.161       .  S
O80        Mg110   2.287       .  S
C81          O94   1.273       .  A
C81          O86   1.284       .  A
C81        C1043   1.496       .  S
C82         O109   1.278       .  A
C82        C1053   1.485       .  S
Mg83         O90   2.136       .  S
Mg83         O91   2.138       .  S
Mg83         O84   2.281       .  S
Mg83         O85   2.317       .  S
Mg83        O112   2.240       .  S
O85          C89   1.276       .  A
O86         Mg93   2.372       .  S
O87         C106   1.265   1_565  A
O88         C108   1.287       .  A
O88        Mg104   2.394       .  S
O90        Mg104   2.161       .  S
O90         C101   1.233       .  S
O91        Mg110   2.179       .  S
O92        Mg104   2.319       .  S
Mg93        O109   2.325       .  S
O94        Mg110   2.269       .  S
H95         C100   1.081       .  S
O96        Mg104   2.170       .  S
O96          C99   1.240       .  S
H97          C99   1.080       .  S
H98         C101   1.082       .  S
O103       Mg110   2.291       .  S
C106        O111   1.274       .  A
C106       C1023   1.474       .  S
O107        C108   1.274       .  A
C108       C1123   1.499   1_565  S
O113       Mg115   2.158       .  S
O113       Mg121   2.148       .  S
O113        C148   1.235       .  S
C114        O127   1.234       .  S
C114        O151   1.267       .  A
C114        H153   1.082       .  S
Mg115       O144   2.154       .  S
Mg115       O159   2.295       .  S
Mg115       O155   2.249       .  S
Mg115       O126   2.288       .  S
O116       Mg158   2.150       .  S
O116       Mg141   2.166       .  S
O116        C137   1.239       .  S
O117        C148   1.269       .  A
O117       Mg141   2.303       .  S
C118        O120   1.278       .  A
C118        O132   1.273       .  A
C118       C1090   1.494   1_565  S
O119        C147   1.273       .  A
O119       Mg121   2.304       .  S
O120       Mg152   2.321       .  S
Mg121       O127   2.119       .  S
Mg121       O135   2.233       .  S
Mg121       O123   2.261       .  S
C122        O160   1.267       .  A
C122        O128   1.271       .  A
C122        C970   1.482   1_565  S
O123        C130   1.270       .  A
H124        C137   1.080       .  S
C125        O139   1.235       .  S
C125        O140   1.270       .  A
C125        H150   1.082       .  S
O126        C149   1.267       .  A
O127       Mg141   2.175       .  S
O128       Mg158   2.292       .  S
C129        O142   1.269       .  A
C129        O134   1.283       .  A
C129        C993   1.494       .  S
C130        O157   1.281       .  A
C130       C1000   1.498       .  S
Mg131       O138   2.123       .  S
Mg131       O139   2.134       .  S
Mg131       O132   2.273       .  S
Mg131       O133   2.318       .  S
Mg131       O160   2.250       .  S
O133        C137   1.275       .  A
O134       Mg141   2.366       .  S
O135        C154   1.266       .  A
O136        C156   1.281       .  A
O136       Mg152   2.347       .  S
O138       Mg152   2.173       .  S
O138        C149   1.234       .  S
O139       Mg158   2.160       .  S
O140       Mg152   2.306       .  S
Mg141       O157   2.347       .  S
O142       Mg158   2.230       .  S
H143        C148   1.082       .  S
O144       Mg152   2.156       .  S
O144        C147   1.239       .  S
H145        C147   1.080       .  S
H146        C149   1.082       .  S
O151       Mg158   2.283       .  S
C154        O159   1.273       .  A
C154        C983   1.475       .  S
O155        C156   1.272       .  A
C156       C1010   1.493       .  S
C161       C1013   1.481       .  S
C161        C162   1.418       .  A
C161        C166   1.405       .  A
C162       C1063   1.500       .  S
C162        C163   1.414       .  A
C163        H168   1.084       .  S
C163        C164   1.415       .  A
C164        C953   1.492       .  S
C164        C165   1.415       .  A
C165        C960   1.488       .  S
C165        C166   1.403       .  A
C166        H167   1.085       .  S
O169       Mg171   2.182   1_544  S
O169       Mg177   2.146   1_545  S
O169        C204   1.237       .  S
C170        O183   1.233   1_565  S
C170        O207   1.267       .  A
C170        H209   1.082       .  S
Mg171       O200   2.158       .  S
Mg171       O215   2.314   1_556  S
Mg171       O211   2.280       .  S
Mg171       O182   2.291   1_565  S
O172       Mg214   2.162       .  S
O172       Mg197   2.173       .  S
O172        C193   1.239   1_554  S
O173        C204   1.274       .  A
O173       Mg197   2.320       .  S
C174        O176   1.279       .  A
C174        O188   1.269       .  A
C174        C940   1.485       .  S
O175        C203   1.273       .  A
O175       Mg177   2.305       .  S
O176       Mg208   2.335       .  S
Mg177       O183   2.149   1_565  S
Mg177       O191   2.251       .  S
Mg177       O179   2.245   1_565  S
C178        O216   1.264       .  A
C178        O184   1.276       .  A
C178        C910   1.475       .  S
O179        C186   1.268       .  A
H180        C193   1.080       .  S
C181        O195   1.237       .  S
C181        O196   1.274       .  A
C181        H206   1.082   1_556  S
O182        C205   1.267       .  A
O183       Mg197   2.171       .  S
O184       Mg214   2.333   1_556  S
C185        O198   1.276       .  A
C185        O190   1.287       .  A
C185       C1080   1.503       .  S
C186        O213   1.281       .  A
C186       C1113   1.492       .  S
Mg187       O194   2.138       .  S
Mg187       O195   2.141       .  S
Mg187       O188   2.261       .  S
Mg187       O189   2.312   1_565  S
Mg187       O216   2.230   1_565  S
O189        C193   1.274       .  A
O190       Mg197   2.390       .  S
O191        C210   1.266       .  A
O192        C212   1.286       .  A
O192       Mg208   2.382       .  S
O194       Mg208   2.162       .  S
O194        C205   1.233   1_565  S
O195       Mg214   2.180   1_566  S
O196       Mg208   2.322       .  S
Mg197       O213   2.359       .  S
O198       Mg214   2.275       .  S
H199        C204   1.081   1_556  S
O200       Mg208   2.157       .  S
O200        C203   1.238   1_556  S
H201        C203   1.080       .  S
H202        C205   1.082       .  S
O207       Mg214   2.296   1_565  S
C210        O215   1.274       .  A
C210        C920   1.477       .  S
O211        C212   1.276       .  A
C212        C930   1.505       .  S
O217       Mg219   2.155   1_556  S
O217       Mg225   2.138       .  S
O217        C252   1.233       .  S
C218        O231   1.234       .  S
C218        O255   1.267       .  A
C218        H257   1.081       .  S
Mg219       O248   2.141       .  S
Mg219       O263   2.285   1_554  S
Mg219       O259   2.250       .  S
Mg219       O230   2.292       .  S
O220       Mg262   2.144       .  S
O220       Mg245   2.148       .  S
O220        C241   1.239   1_556  S
O221        C252   1.268       .  A
O221       Mg245   2.298       .  S
C222        O224   1.278       .  A
C222        O236   1.271       .  A
C222       C1103   1.486       .  S
O223        C251   1.276       .  A
O223       Mg225   2.318       .  S
O224       Mg256   2.322       .  S
Mg225       O231   2.112       .  S
Mg225       O239   2.222       .  S
Mg225       O227   2.258       .  S
C226        O264   1.267       .  A
C226        O232   1.267       .  A
C226        C870   1.479       .  S
O227        C234   1.270       .  A
H228        C241   1.080       .  S
C229        O243   1.235       .  S
C229        O244   1.271       .  A
C229        H254   1.082   1_554  S
O230        C253   1.269       .  A
O231       Mg245   2.185       .  S
O232       Mg262   2.279   1_554  S
C233        O246   1.271       .  A
C233        O238   1.278       .  A
C233        C900   1.485       .  S
C234        O261   1.277       .  A
C234        C890   1.491       .  S
Mg235       O242   2.134       .  S
Mg235       O243   2.131       .  S
Mg235       O236   2.267       .  S
Mg235       O237   2.316       .  S
Mg235       O264   2.254       .  S
O237        C241   1.275       .  A
O238       Mg245   2.328       .  S
O239        C258   1.264       .  A
O240        C260   1.283       .  A
O240       Mg256   2.365       .  S
O242       Mg256   2.171       .  S
O242        C253   1.235       .  S
O243       Mg262   2.165   1_554  S
O244       Mg256   2.314       .  S
Mg245       O261   2.320       .  S
O246       Mg262   2.239       .  S
H247        C252   1.082   1_554  S
O248       Mg256   2.154       .  S
O248        C251   1.240   1_554  S
H249        C251   1.080       .  S
H250        C253   1.081       .  S
O255       Mg262   2.282       .  S
C258        O263   1.270       .  A
C258        C880   1.474       .  S
O259        C260   1.272       .  A
C260        C963   1.498       .  S
O265       Mg267   2.164   1_456  S
O265       Mg273   2.124       .  S
O265        C300   1.232       .  S
C266        O279   1.237   1_655  S
C266        O303   1.269       .  A
C266        H305   1.082       .  S
Mg267       O296   2.136       .  S
Mg267       O311   2.278       .  S
Mg267       O307   2.209       .  S
Mg267       O278   2.292   1_655  S
O268       Mg310   2.133       .  S
O268       Mg293   2.157       .  S
O268        C289   1.241   1_556  S
O269        C300   1.268       .  A
O269       Mg293   2.306       .  S
C270        O272   1.284       .  A
C270        O284   1.273       .  A
C270        C950   1.488       .  S
O271        C299   1.279       .  A
O271       Mg273   2.337   1_655  S
O272       Mg304   2.341       .  S
Mg273       O279   2.135       .  S
Mg273       O287   2.268   1_455  S
Mg273       O275   2.296       .  S
C274        O312   1.267       .  A
C274        O280   1.261   1_554  A
C274        C840   1.472       .  S
O275        C282   1.275       .  A
H276        C289   1.080   1_556  S
C277        O291   1.232       .  S
C277        O292   1.267       .  A
C277        H302   1.081   1_554  S
O278        C301   1.270       .  A
O279       Mg293   2.183       .  S
O280       Mg310   2.266       .  S
C281        O294   1.265       .  A
C281        O286   1.282       .  A
C281        C850   1.489       .  S
C282        O309   1.280       .  A
C282        C860   1.485       .  S
Mg283       O290   2.151   1_455  S
Mg283       O291   2.122   1_455  S
Mg283       O284   2.279   1_455  S
Mg283       O285   2.333       .  S
Mg283       O312   2.289       .  S
O285        C289   1.278       .  A
O286       Mg293   2.375       .  S
O287        C306   1.265       .  A
O288        C308   1.286       .  A
O288       Mg304   2.406       .  S
O290       Mg304   2.195       .  S
O290        C301   1.236   1_655  S
O291       Mg310   2.160   1_654  S
O292       Mg304   2.306       .  S
Mg293       O309   2.321       .  S
O294       Mg310   2.201       .  S
H295        C300   1.081   1_554  S
O296       Mg304   2.172       .  S
O296        C299   1.241   1_554  S
H297        C299   1.080       .  S
H298        C301   1.083       .  S
O303       Mg310   2.287   1_655  S
C306        O311   1.263   1_556  A
C306        C830   1.468       .  S
O307        C308   1.265       .  A
C308       C1070   1.503       .  S
O313       Mg315   2.161       .  S
O313       Mg321   2.138       .  S
O313        C348   1.233       .  S
C314        O327   1.235       .  S
C314        O351   1.269       .  A
C314        H353   1.082       .  S
Mg315       O344   2.137       .  S
Mg315       O359   2.273       .  S
Mg315       O355   2.233       .  S
Mg315       O326   2.286       .  S
O316       Mg358   2.131       .  S
O316       Mg341   2.142       .  S
O316        C337   1.241       .  S
O317        C348   1.268       .  A
O317       Mg341   2.302       .  S
C318        O320   1.280       .  A
C318        O332   1.272       .  A
C318        C820   1.495       .  S
O319        C347   1.275       .  A
O319       Mg321   2.318       .  S
O320       Mg352   2.328       .  S
Mg321       O327   2.124       .  S
Mg321       O335   2.236       .  S
Mg321       O323   2.273       .  S
C322        O360   1.264       .  A
C322        O328   1.262       .  A
C322        C770   1.471       .  S
O323        C330   1.272       .  A
H324        C337   1.080       .  S
C325        O339   1.234       .  S
C325        O340   1.269       .  A
C325        H350   1.081       .  S
O326        C349   1.268       .  A
O327       Mg341   2.181       .  S
O328       Mg358   2.252       .  S
C329        O342   1.271       .  A
C329        O334   1.280       .  A
C329        C800   1.493       .  S
C330        O357   1.277       .  A
C330        C793   1.490   1_545  S
Mg331       O338   2.127       .  S
Mg331       O339   2.143       .  S
Mg331       O332   2.268       .  S
Mg331       O333   2.329       .  S
Mg331       O360   2.250       .  S
O333        C337   1.278       .  A
O334       Mg341   2.350       .  S
O335        C354   1.265       .  A
O336        C356   1.284       .  A
O336       Mg352   2.378       .  S
O338       Mg352   2.190       .  S
O338        C349   1.235       .  S
O339       Mg358   2.172       .  S
O340       Mg352   2.308       .  S
Mg341       O357   2.305       .  S
O342       Mg358   2.249       .  S
H343        C348   1.081       .  S
O344       Mg352   2.148       .  S
O344        C347   1.240       .  S
H345        C347   1.080       .  S
H346        C349   1.082       .  S
O351       Mg358   2.291       .  S
C354        O359   1.267       .  A
C354        C780   1.475   1_545  S
O355        C356   1.270       .  A
C356        C810   1.494       .  S
C361        C903   1.483       .  S
C361        C362   1.415       .  A
C361        C366   1.408       .  A
C362        C863   1.494       .  S
C362        C363   1.407       .  A
C363        H368   1.084       .  S
C363        C364   1.412       .  A
C364        C763   1.494       .  S
C364        C365   1.416       .  A
C365        C803   1.486       .  S
C365        C366   1.404       .  A
C366        H367   1.085       .  S
C369        C853   1.490       .  S
C369        C370   1.419       .  A
C369        C374   1.415       .  A
C370        C933   1.497       .  S
C370        C371   1.406       .  A
C371        H376   1.085       .  S
C371        C372   1.411       .  A
C372        C790   1.481       .  S
C372        C373   1.415       .  A
C373        C753   1.501       .  S
C373        C374   1.407       .  A
C374        H375   1.084       .  S
O377       Mg379   2.176       .  S
O377       Mg385   2.143       .  S
O377        C412   1.233       .  S
C378        O391   1.236       .  S
C378        O415   1.268       .  A
C378        H417   1.082       .  S
Mg379       O408   2.134       .  S
Mg379       O423   2.252       .  S
Mg379       O419   2.236       .  S
Mg379       O390   2.293       .  S
O380       Mg422   2.135       .  S
O380       Mg405   2.161       .  S
O380        C401   1.242       .  S
O381        C412   1.268       .  A
O381       Mg405   2.306       .  S
C382        O384   1.280       .  A
C382        O396   1.276       .  A
C382        C730   1.490       .  S
O383        C411   1.278       .  A
O383       Mg385   2.331       .  S
O384       Mg416   2.319       .  S
Mg385       O391   2.128       .  S
Mg385       O399   2.256       .  S
Mg385       O387   2.264       .  S
C386        O424   1.266   1_565  A
C386        O392   1.263   1_565  A
C386        C700   1.473       .  S
O387        C394   1.272       .  A
H388        C401   1.080       .  S
C389        O403   1.233       .  S
C389        O404   1.268       .  A
C389        H414   1.081       .  S
O390        C413   1.269       .  A
O391       Mg405   2.199       .  S
O392       Mg422   2.271       .  S
C393        O406   1.267       .  A
C393        O398   1.285       .  A
C393        C720   1.496   1_545  S
C394        O421   1.282       .  A
C394        C760   1.499       .  S
Mg395       O402   2.134       .  S
Mg395       O403   2.125       .  S
Mg395       O396   2.306       .  S
Mg395       O397   2.331       .  S
Mg395       O424   2.257       .  S
O397        C401   1.278       .  A
O398       Mg405   2.395       .  S
O399        C418   1.264       .  A
O400        C420   1.284       .  A
O400       Mg416   2.376       .  S
O402       Mg416   2.173       .  S
O402        C413   1.236       .  S
O403       Mg422   2.164       .  S
O404       Mg416   2.308       .  S
Mg405       O421   2.345       .  S
O406       Mg422   2.209       .  S
H407        C412   1.081       .  S
O408       Mg416   2.156       .  S
O408        C411   1.241       .  S
H409        C411   1.080       .  S
H410        C413   1.082       .  S
O415       Mg422   2.284       .  S
C418        O423   1.262       .  A
C418        C713   1.474   1_655  S
O419        C420   1.269       .  A
C420        C743   1.494       .  S
O425       Mg427   2.181       .  S
O425       Mg433   2.143       .  S
O425        C460   1.237       .  S
C426        O439   1.232       .  S
C426        O463   1.266       .  A
C426        H465   1.082       .  S
Mg427       O456   2.171       .  S
Mg427       O471   2.324       .  S
Mg427       O467   2.266       .  S
Mg427       O438   2.293       .  S
O428       Mg470   2.179       .  S
O428       Mg453   2.181       .  S
O428        C449   1.239       .  S
O429        C460   1.275       .  A
O429       Mg453   2.329       .  S
C430        O432   1.281       .  A
C430        O444   1.269       .  A
C430        C750   1.488       .  S
O431        C459   1.274       .  A
O431       Mg433   2.313       .  S
O432       Mg464   2.354       .  S
Mg433       O439   2.134       .  S
Mg433       O447   2.221       .  S
Mg433       O435   2.276       .  S
C434        O472   1.265       .  A
C434        O440   1.277       .  A
C434        C650   1.479   1_655  S
O435        C442   1.269       .  A
H436        C449   1.081       .  S
C437        O451   1.235       .  S
C437        O452   1.271       .  A
C437        H462   1.081       .  S
O438        C461   1.266       .  A
O439       Mg453   2.149       .  S
O440       Mg470   2.333       .  S
C441        O454   1.275       .  A
C441        O446   1.285       .  A
C441        C690   1.495       .  S
C442        O469   1.282       .  A
C442        C680   1.497       .  S
Mg443       O450   2.140       .  S
Mg443       O451   2.141       .  S
Mg443       O444   2.265       .  S
Mg443       O445   2.308       .  S
Mg443       O472   2.233       .  S
O445        C449   1.274       .  A
O446       Mg453   2.368       .  S
O447        C466   1.262       .  A
O448        C468   1.284       .  A
O448       Mg464   2.367       .  S
O450       Mg464   2.162       .  S
O450        C461   1.232       .  S
O451       Mg470   2.166       .  S
O452       Mg464   2.311       .  S
Mg453       O469   2.368       .  S
O454       Mg470   2.261       .  S
H455        C460   1.081       .  S
O456       Mg464   2.185       .  S
O456        C459   1.239       .  S
H457        C459   1.080       .  S
H458        C461   1.082       .  S
O463       Mg470   2.290       .  S
C466        O471   1.276       .  A
C466        C660   1.484       .  S
O467        C468   1.275       .  A
C468        C670   1.494       .  S
C473        C943   1.489       .  S
C473        C474   1.411       .  A
C473        C478   1.407       .  A
C474        C893   1.485       .  S
C474        C475   1.408       .  A
C475        H480   1.084       .  S
C475        C476   1.407       .  A
C476        C673   1.491       .  S
C476        C477   1.418       .  A
C477        C723   1.491       .  S
C477        C478   1.412       .  A
C478        H479   1.084       .  S
C481       C1040   1.497       .  S
C481        C482   1.420       .  A
C481        C486   1.410       .  A
C482       C1153   1.497       .  S
C482        C483   1.411   1_455  A
C483        H488   1.085       .  S
C483        C484   1.410       .  A
C484        C740   1.494       .  S
C484        C485   1.421       .  A
C485        C693   1.502       .  S
C485        C486   1.412   1_655  A
C486        H487   1.084       .  S
C489       C1160   1.498       .  S
C489        C490   1.415       .  A
C489        C494   1.406       .  A
C490       C1003   1.490       .  S
C490        C491   1.417       .  A
C491        H496   1.084       .  S
C491        C492   1.415       .  A
C492        C683   1.506       .  S
C492        C493   1.419       .  A
C493        C823   1.490       .  S
C493        C494   1.413       .  A
C494        H495   1.084       .  S
C497       C1050   1.491       .  S
C497        C498   1.413       .  A
C497        C502   1.407       .  A
C498        C990   1.485       .  S
C498        C499   1.408   1_565  A
C499        H504   1.084       .  S
C499        C500   1.408       .  A
C500        C733   1.491       .  S
C500        C501   1.418       .  A
C501        C813   1.494       .  S
C501        C502   1.411   1_545  A
C502        H503   1.084       .  S
O505       Mg507   2.135   1_566  S
O505       Mg513   2.135   1_556  S
O505        C540   1.238       .  S
C506        O519   1.233       .  S
C506        O543   1.268       .  A
C506        H545   1.081       .  S
Mg507       O536   2.167       .  S
Mg507       O551   2.356       .  S
Mg507       O547   2.264       .  S
Mg507       O518   2.310   1_554  S
O508       Mg550   2.170       .  S
O508       Mg533   2.152       .  S
O508        C529   1.234       .  S
O509        C540   1.274       .  A
O509       Mg533   2.316   1_455  S
C510        O512   1.269   1_655  A
C510        O524   1.266   1_554  A
C510        C833   1.476       .  S
O511        C539   1.270   1_565  A
O511       Mg513   2.299       .  S
O512       Mg544   2.270       .  S
Mg513       O519   2.136   1_455  S
Mg513       O527   2.202       .  S
Mg513       O515   2.271   1_554  S
C514        O552   1.267       .  A
C514        O520   1.280   1_545  A
C514        C913   1.489       .  S
O515        C522   1.263       .  A
H516        C529   1.083       .  S
C517        O531   1.237       .  S
C517        O532   1.273       .  A
C517        H542   1.081       .  S
O518        C541   1.269       .  A
O519       Mg533   2.124   1_554  S
O520       Mg550   2.345       .  S
C521        O534   1.276       .  A
C521        O526   1.268       .  A
C521        C883   1.464       .  S
C522        O549   1.267   1_455  A
C522        C843   1.477       .  S
Mg523       O530   2.155   1_655  S
Mg523       O531   2.142   1_556  S
Mg523       O524   2.278       .  S
Mg523       O525   2.298       .  S
Mg523       O552   2.220       .  S
O525        C529   1.269   1_545  A
O526       Mg533   2.251       .  S
O527        C546   1.264       .  A
O528        C548   1.273       .  A
O528       Mg544   2.291       .  S
O530       Mg544   2.136   1_556  S
O530        C541   1.232       .  S
O531       Mg550   2.147   1_544  S
O532       Mg544   2.316   1_655  S
Mg533       O549   2.283       .  S
O534       Mg550   2.285       .  S
H535        C540   1.081       .  S
O536       Mg544   2.156       .  S
O536        C539   1.235       .  S
H537        C539   1.083       .  S
H538        C541   1.082       .  S
O543       Mg550   2.303   1_554  S
C546        O551   1.280   1_565  A
C546        C923   1.486       .  S
O547        C548   1.273       .  A
C548        C873   1.469       .  S
O553       Mg555   2.124       .  S
O553       Mg561   2.169       .  S
O553        C588   1.235       .  S
C554        O567   1.237       .  S
C554        O591   1.270       .  A
C554        H593   1.082       .  S
Mg555       O584   2.145       .  S
Mg555       O599   2.293       .  S
Mg555       O595   2.261       .  S
Mg555       O566   2.297       .  S
O556       Mg598   2.146       .  S
O556       Mg581   2.106       .  S
O556        C577   1.233       .  S
O557        C588   1.268       .  A
O557       Mg581   2.282       .  S
C558        O560   1.264       .  A
C558        O572   1.277       .  A
C558       C1130   1.463       .  S
O559        C587   1.265       .  A
O559       Mg561   2.282       .  S
O560       Mg592   2.178       .  S
Mg561       O567   2.145       .  S
Mg561       O575   2.265       .  S
Mg561       O563   2.307       .  S
C562        O600   1.277       .  A
C562        O568   1.274       .  A
C562        C980   1.476       .  S
O563        C570   1.275       .  A
H564        C577   1.083       .  S
C565        O579   1.235       .  S
C565        O580   1.268       .  A
C565        H590   1.082       .  S
O566        C589   1.270       .  A
O567       Mg581   2.159       .  S
O568       Mg598   2.283       .  S
C569        O582   1.272       .  A
C569        O574   1.269       .  A
C569       C1033   1.475       .  S
C570        O597   1.264       .  A
C570       C1143   1.463       .  S
Mg571       O578   2.148       .  S
Mg571       O579   2.166       .  S
Mg571       O572   2.319       .  S
Mg571       O573   2.285       .  S
Mg571       O600   2.272       .  S
O573        C577   1.266       .  A
O574       Mg581   2.270       .  S
O575        C594   1.276       .  A
O576        C596   1.271       .  A
O576       Mg592   2.282       .  S
O578       Mg592   2.159       .  S
O578        C589   1.236       .  S
O579       Mg598   2.124       .  S
O580       Mg592   2.283       .  S
Mg581       O597   2.185       .  S
O582       Mg598   2.268       .  S
H583        C588   1.082       .  S
O584       Mg592   2.105       .  S
O584        C587   1.232       .  S
H585        C587   1.083       .  S
H586        C589   1.082       .  S
O591       Mg598   2.295       .  S
C594        O599   1.275       .  A
C594        C973   1.477       .  S
O595        C596   1.272       .  A
C596       C1020   1.480       .  S
O601       Mg603   2.122       .  S
O601       Mg609   2.138       .  S
O601        C636   1.230       .  S
C602        O615   1.239       .  S
C602        O639   1.274       .  A
C602        H641   1.082       .  S
Mg603       O632   2.138       .  S
Mg603       O647   2.264       .  S
Mg603       O643   2.219       .  S
Mg603       O614   2.301       .  S
O604       Mg646   2.132       .  S
O604       Mg629   2.125       .  S
O604        C625   1.236       .  S
O605        C636   1.263       .  A
O605       Mg629   2.284       .  S
C606        O608   1.269       .  A
C606        O620   1.277       .  A
C606        C773   1.476       .  S
O607        C635   1.272       .  A
O607       Mg609   2.315       .  S
O608       Mg640   2.217       .  S
Mg609       O615   2.166       .  S
Mg609       O623   2.324       .  S
Mg609       O611   2.318       .  S
C610        O648   1.274       .  A
C610        O616   1.263       .  A
C610        C663   1.478       .  S
O611        C618   1.278       .  A
H612        C625   1.081       .  S
C613        O627   1.230       .  S
C613        O628   1.264       .  A
C613        H638   1.083       .  S
O614        C637   1.273       .  A
O615       Mg629   2.186       .  S
O616       Mg646   2.256       .  S
C617        O630   1.264       .  A
C617        O622   1.270       .  A
C617        C703   1.473       .  S
C618        O645   1.268       .  A
C618        C783   1.473       .  S
Mg619       O626   2.162       .  S
Mg619       O627   2.142       .  S
Mg619       O620   2.308       .  S
Mg619       O621   2.315       .  S
Mg619       O648   2.320       .  S
O621        C625   1.272       .  A
O622       Mg629   2.282       .  S
O623        C642   1.277       .  A
O624        C644   1.272       .  A
O624       Mg640   2.296       .  S
O626       Mg640   2.184       .  S
O626        C637   1.238       .  S
O627       Mg646   2.131       .  S
O628       Mg640   2.291       .  S
Mg629       O645   2.209       .  S
O630       Mg646   2.235       .  S
H631        C636   1.083       .  S
O632       Mg640   2.129       .  S
O632        C635   1.236       .  S
H633        C635   1.081       .  S
H634        C637   1.082       .  S
O639       Mg646   2.307       .  S
C642        O647   1.265       .  A
C642        C653   1.488       .  S
O643        C644   1.263       .  A
C644        C710   1.472       .  S
C649        H656   1.083       .  S
C649        C650   1.397       .  A
C649        C654   1.399       .  A
C650        C651   1.412       .  A
C651        C652   1.401       .  A
C651        F658   1.357       .  S
C652        H657   1.083       .  S
C652        C653   1.402       .  A
C653        C654   1.417       .  A
C654        F655   1.357       .  S
C659        H666   1.083       .  S
C659        C660   1.400       .  A
C659        C664   1.396       .  A
C660        C661   1.417       .  A
C661        C662   1.402       .  A
C661        F668   1.358       .  S
C662        H667   1.083       .  S
C662        C663   1.399       .  A
C663        C664   1.411       .  A
C664        F665   1.357       .  S
C669        H676   1.083       .  S
C669        C670   1.410       .  A
C669        C674   1.400       .  A
C670        C671   1.409       .  A
C671        C672   1.408       .  A
C671        F678   1.357       .  S
C672        H677   1.083       .  S
C672        C673   1.408       .  A
C673        C674   1.404       .  A
C674        F675   1.357       .  S
C679        H686   1.083       .  S
C679        C680   1.407       .  A
C679        C684   1.412       .  A
C680        C681   1.413       .  A
C681        C682   1.404       .  A
C681        F688   1.358       .  S
C682        H687   1.083       .  S
C682        C683   1.405       .  A
C683        C684   1.412       .  A
C684        F685   1.357       .  S
C689        H696   1.083       .  S
C689        C690   1.407       .  A
C689        C694   1.398       .  A
C690        C691   1.411       .  A
C691        C692   1.409       .  A
C691        F698   1.357       .  S
C692        H697   1.083       .  S
C692        C693   1.409       .  A
C693        C694   1.409       .  A
C694        F695   1.358   1_655  S
C699        H706   1.084       .  S
C699        C700   1.403       .  A
C699        C704   1.392       .  A
C700        C701   1.408       .  A
C701        C702   1.400       .  A
C701        F708   1.358       .  S
C702        H707   1.083       .  S
C702        C703   1.405       .  A
C703        C704   1.407       .  A
C704        F705   1.358       .  S
C709        H716   1.084       .  S
C709        C710   1.402       .  A
C709        C714   1.393       .  A
C710        C711   1.408       .  A
C711        C712   1.398       .  A
C711        F718   1.357       .  S
C712        H717   1.083   1_455  S
C712        C713   1.404       .  A
C713        C714   1.409       .  A
C714        F715   1.358       .  S
C719        H726   1.083       .  S
C719        C720   1.411       .  A
C719        C724   1.393       .  A
C720        C721   1.410       .  A
C721        C722   1.412       .  A
C721        F728   1.357   1_565  S
C722        H727   1.083       .  S
C722        C723   1.410       .  A
C723        C724   1.401       .  A
C724        F725   1.358       .  S
C729        H736   1.083       .  S
C729        C730   1.409       .  A
C729        C734   1.401       .  A
C730        C731   1.408       .  A
C731        C732   1.406       .  A
C731        F738   1.357       .  S
C732        H737   1.083       .  S
C732        C733   1.407       .  A
C733        C734   1.404       .  A
C734        F735   1.358       .  S
C739        H746   1.083       .  S
C739        C740   1.409       .  A
C739        C744   1.407       .  A
C740        C741   1.404       .  A
C741        C742   1.400       .  A
C741        F748   1.358       .  S
C742        H747   1.083       .  S
C742        C743   1.412       .  A
C743        C744   1.407       .  A
C744        F745   1.357       .  S
C749        H756   1.083       .  S
C749        C750   1.405       .  A
C749        C754   1.409   1_655  A
C750        C751   1.410   1_655  A
C751        C752   1.402       .  A
C751        F758   1.358       .  S
C752        H757   1.082       .  S
C752        C753   1.405       .  A
C753        C754   1.412       .  A
C754        F755   1.357       .  S
C759        H766   1.083       .  S
C759        C760   1.412   1_455  A
C759        C764   1.392       .  A
C760        C761   1.411   1_655  A
C761        C762   1.412       .  A
C761        F768   1.356   1_455  S
C762        H767   1.083       .  S
C762        C763   1.411       .  A
C763        C764   1.402       .  A
C764        F765   1.358       .  S
C769        H776   1.084       .  S
C769        C770   1.405       .  A
C769        C774   1.393       .  A
C770        C771   1.405       .  A
C771        C772   1.395       .  A
C771        F778   1.358       .  S
C772        H777   1.083       .  S
C772        C773   1.407       .  A
C773        C774   1.407       .  A
C774        F775   1.358       .  S
C779        H786   1.083       .  S
C779        C780   1.407       .  A
C779        C784   1.394       .  A
C780        C781   1.407       .  A
C781        C782   1.394       .  A
C781        F788   1.358   1_565  S
C782        H787   1.083       .  S
C782        C783   1.406       .  A
C783        C784   1.405       .  A
C784        F785   1.358       .  S
C789        H796   1.083       .  S
C789        C790   1.405       .  A
C789        C794   1.406       .  A
C790        C791   1.400       .  A
C791        C792   1.392       .  A
C791        F798   1.358       .  S
C792        H797   1.083       .  S
C792        C793   1.410       .  A
C793        C794   1.411       .  A
C794        F795   1.357   1_565  S
C799        H806   1.083       .  S
C799        C800   1.410       .  A
C799        C804   1.398       .  A
C800        C801   1.410       .  A
C801        C802   1.406       .  A
C801        F808   1.357       .  S
C802        H807   1.083       .  S
C802        C803   1.406       .  A
C803        C804   1.402       .  A
C804        F805   1.358       .  S
C809        H816   1.083       .  S
C809        C810   1.408       .  A
C809        C814   1.409       .  A
C810        C811   1.413       .  A
C811        C812   1.396       .  A
C811        F818   1.358       .  S
C812        H817   1.084   1_545  S
C812        C813   1.401       .  A
C813        C814   1.411       .  A
C814        F815   1.357       .  S
C819        H826   1.083       .  S
C819        C820   1.412       .  A
C819        C824   1.394       .  A
C820        C821   1.410       .  A
C821        C822   1.409       .  A
C821        F828   1.356       .  S
C822        H827   1.083       .  S
C822        C823   1.408       .  A
C823        C824   1.402       .  A
C824        F825   1.358       .  S
C829        H836   1.083       .  S
C829        C830   1.402       .  A
C829        C834   1.400   1_556  A
C830        C831   1.404   1_655  A
C831        C832   1.395       .  A
C831        F838   1.358       .  S
C832        H837   1.083       .  S
C832        C833   1.404   1_456  A
C833        C834   1.410       .  A
C834        F835   1.357       .  S
C839        H846   1.084       .  S
C839        C840   1.403   1_655  A
C839        C844   1.397   1_554  A
C840        C841   1.405   1_554  A
C841        C842   1.400       .  A
C841        F848   1.357       .  S
C842        H847   1.083       .  S
C842        C843   1.407       .  A
C843        C844   1.407   1_455  A
C844        F845   1.358       .  S
C849        H856   1.083       .  S
C849        C850   1.409       .  A
C849        C854   1.393       .  A
C850        C851   1.409       .  A
C851        C852   1.409       .  A
C851        F858   1.357       .  S
C852        H857   1.082       .  S
C852        C853   1.409       .  A
C853        C854   1.403       .  A
C854        F855   1.358       .  S
C859        H866   1.083       .  S
C859        C860   1.403       .  A
C859        C864   1.405       .  A
C860        C861   1.411       .  A
C861        C862   1.401       .  A
C861        F868   1.358       .  S
C862        H867   1.083       .  S
C862        C863   1.403       .  A
C863        C864   1.411       .  A
C864        F865   1.358       .  S
C869        H876   1.083       .  S
C869        C870   1.407       .  A
C869        C874   1.396       .  A
C870        C871   1.410       .  A
C871        C872   1.397       .  A
C871        F878   1.358   1_554  S
C872        H877   1.084   1_554  S
C872        C873   1.402       .  A
C873        C874   1.403       .  A
C874        F875   1.358       .  S
C879        H886   1.083       .  S
C879        C880   1.410       .  A
C879        C884   1.395       .  A
C880        C881   1.405       .  A
C881        C882   1.393       .  A
C881        F888   1.358       .  S
C882        H887   1.084   1_556  S
C882        C883   1.404       .  A
C883        C884   1.401       .  A
C884        F885   1.358       .  S
C889        H896   1.083       .  S
C889        C890   1.410       .  A
C889        C894   1.391       .  A
C890        C891   1.410       .  A
C891        C892   1.409       .  A
C891        F898   1.357       .  S
C892        H897   1.083       .  S
C892        C893   1.408       .  A
C893        C894   1.399       .  A
C894        F895   1.358       .  S
C899        H906   1.083       .  S
C899        C900   1.409       .  A
C899        C904   1.404       .  A
C900        C901   1.410       .  A
C901        C902   1.392       .  A
C901        F908   1.358       .  S
C902        H907   1.084       .  S
C902        C903   1.400       .  A
C903        C904   1.407       .  A
C904        F905   1.357       .  S
C909        H916   1.083       .  S
C909        C910   1.407   1_565  A
C909        C914   1.401       .  A
C910        C911   1.399       .  A
C911        C912   1.400       .  A
C911        F918   1.357       .  S
C912        H917   1.083       .  S
C912        C913   1.415       .  A
C913        C914   1.407   1_545  A
C914        F915   1.357       .  S
C919        H926   1.084       .  S
C919        C920   1.409   1_545  A
C919        C924   1.403       .  A
C920        C921   1.400       .  A
C921        C922   1.396       .  A
C921        F928   1.358       .  S
C922        H927   1.084       .  S
C922        C923   1.413       .  A
C923        C924   1.405   1_565  A
C924        F925   1.357       .  S
C929        H936   1.083       .  S
C929        C930   1.412       .  A
C929        C934   1.403       .  A
C930        C931   1.412       .  A
C931        C932   1.411       .  A
C931        F938   1.357       .  S
C932        H937   1.083       .  S
C932        C933   1.408       .  A
C933        C934   1.404       .  A
C934        F935   1.358       .  S
C939        H946   1.083       .  S
C939        C940   1.405       .  A
C939        C944   1.406       .  A
C940        C941   1.411       .  A
C941        C942   1.398       .  A
C941        F948   1.358       .  S
C942        H947   1.084       .  S
C942        C943   1.401       .  A
C943        C944   1.409       .  A
C944        F945   1.357       .  S
C949        H956   1.083       .  S
C949        C950   1.405       .  A
C949        C954   1.408       .  A
C950        C951   1.412       .  A
C951        C952   1.399       .  A
C951        F958   1.358       .  S
C952        H957   1.083       .  S
C952        C953   1.401       .  A
C953        C954   1.410       .  A
C954        F955   1.357       .  S
C959        H966   1.083       .  S
C959        C960   1.406       .  A
C959        C964   1.409       .  A
C960        C961   1.401       .  A
C961        C962   1.397       .  A
C961        F968   1.358       .  S
C962        H967   1.083       .  S
C962        C963   1.411       .  A
C963        C964   1.413       .  A
C964        F965   1.357       .  S
C969        H976   1.083   1_545  S
C969        C970   1.406       .  A
C969        C974   1.397       .  A
C970        C971   1.411       .  A
C971        C972   1.397       .  A
C971        F978   1.357       .  S
C972        H977   1.083       .  S
C972        C973   1.402       .  A
C973        C974   1.408       .  A
C974        F975   1.358       .  S
C979        H986   1.083       .  S
C979        C980   1.407       .  A
C979        C984   1.396       .  A
C980        C981   1.405       .  A
C981        C982   1.396       .  A
C981        F988   1.358       .  S
C982        H987   1.082       .  S
C982        C983   1.407       .  A
C983        C984   1.405       .  A
C984        F985   1.358       .  S
C989        H996   1.084   1_565  S
C989        C990   1.398       .  A
C989        C994   1.395       .  A
C990        C991   1.407       .  A
C991        C992   1.407       .  A
C991        F998   1.357       .  S
C992        H997   1.083       .  S
C992        C993   1.409       .  A
C993        C994   1.416       .  A
C994        F995   1.358       .  S
C999       H1006   1.083       .  S
C999       C1000   1.408       .  A
C999       C1004   1.410       .  A
C1000      C1001   1.416       .  A
C1001      C1002   1.396       .  A
C1001      F1008   1.357       .  S
C1002      H1007   1.084       .  S
C1002      C1003   1.397       .  A
C1003      C1004   1.410       .  A
C1004      F1005   1.357       .  S
C1009      H1016   1.083       .  S
C1009      C1010   1.410       .  A
C1009      C1014   1.406       .  A
C1010      C1011   1.414       .  A
C1011      C1012   1.395       .  A
C1011      F1018   1.358       .  S
C1012      H1017   1.084       .  S
C1012      C1013   1.398       .  A
C1013      C1014   1.405       .  A
C1014      F1015   1.357       .  S
C1019      H1026   1.084       .  S
C1019      C1020   1.403       .  A
C1019      C1024   1.395       .  A
C1020      C1021   1.412       .  A
C1021      C1022   1.399       .  A
C1021      F1028   1.358       .  S
C1022      H1027   1.084       .  S
C1022      C1023   1.401       .  A
C1023      C1024   1.409       .  A
C1024      F1025   1.358       .  S
C1029      H1036   1.084   1_655  S
C1029      C1030   1.403       .  A
C1029      C1034   1.394       .  A
C1030      C1031   1.411       .  A
C1031      C1032   1.397       .  A
C1031      F1038   1.358       .  S
C1032      H1037   1.083       .  S
C1032      C1033   1.402       .  A
C1033      C1034   1.409       .  A
C1034      F1035   1.358       .  S
C1039      H1046   1.083       .  S
C1039      C1040   1.403       .  A
C1039      C1044   1.403       .  A
C1040      C1041   1.411       .  A
C1041      C1042   1.406       .  A
C1041      F1048   1.357       .  S
C1042      H1047   1.083       .  S
C1042      C1043   1.406       .  A
C1043      C1044   1.414       .  A
C1044      F1045   1.358       .  S
C1049      H1056   1.083       .  S
C1049      C1050   1.402       .  A
C1049      C1054   1.399       .  A
C1050      C1051   1.410       .  A
C1051      C1052   1.406       .  A
C1051      F1058   1.357       .  S
C1052      H1057   1.083       .  S
C1052      C1053   1.404       .  A
C1053      C1054   1.410       .  A
C1054      F1055   1.358       .  S
C1059      H1066   1.083       .  S
C1059      C1060   1.406       .  A
C1059      C1064   1.411   1_455  A
C1060      C1061   1.412   1_455  A
C1061      C1062   1.403       .  A
C1061      F1068   1.358       .  S
C1062      H1067   1.082       .  S
C1062      C1063   1.403       .  A
C1063      C1064   1.412       .  A
C1064      F1065   1.357       .  S
C1069      H1076   1.083       .  S
C1069      C1070   1.410       .  A
C1069      C1074   1.415       .  A
C1070      C1071   1.417       .  A
C1071      C1072   1.396       .  A
C1071      F1078   1.358       .  S
C1072      H1077   1.084       .  S
C1072      C1073   1.400       .  A
C1073      C1074   1.412       .  A
C1074      F1075   1.357       .  S
C1079      H1086   1.083       .  S
C1079      C1080   1.412       .  A
C1079      C1084   1.404       .  A
C1080      C1081   1.410       .  A
C1081      C1082   1.410       .  A
C1081      F1088   1.357       .  S
C1082      H1087   1.083       .  S
C1082      C1083   1.409       .  A
C1083      C1084   1.404       .  A
C1084      F1085   1.357       .  S
C1089      H1096   1.082       .  S
C1089      C1090   1.410       .  A
C1089      C1094   1.392       .  A
C1090      C1091   1.412       .  A
C1091      C1092   1.410       .  A
C1091      F1098   1.357   1_545  S
C1092      H1097   1.083       .  S
C1092      C1093   1.408       .  A
C1093      C1094   1.399       .  A
C1094      F1095   1.358       .  S
C1099      H1106   1.083       .  S
C1099      C1100   1.399       .  A
C1099      C1104   1.394       .  A
C1100      C1101   1.407       .  A
C1101      C1102   1.408       .  A
C1101      F1108   1.357       .  S
C1102      H1107   1.083       .  S
C1102      C1103   1.407       .  A
C1103      C1104   1.411       .  A
C1104      F1105   1.358       .  S
C1109      H1116   1.083       .  S
C1109      C1110   1.398       .  A
C1109      C1114   1.397       .  A
C1110      C1111   1.409       .  A
C1111      C1112   1.411       .  A
C1111      F1118   1.357       .  S
C1112      H1117   1.083       .  S
C1112      C1113   1.407       .  A
C1113      C1114   1.413       .  A
C1114      F1115   1.358       .  S
C1119      H1126   1.083       .  S
C1119      C1120   1.400       .  A
C1119      C1124   1.402       .  A
C1120      C1121   1.412       .  A
C1121      C1122   1.410       .  A
C1121      F1128   1.357       .  S
C1122      H1127   1.083   1_545  S
C1122      C1123   1.407       .  A
C1123      C1124   1.415       .  A
C1124      F1125   1.358       .  S
C1129      H1136   1.084       .  S
C1129      C1130   1.404       .  A
C1129      C1134   1.390       .  A
C1130      C1131   1.402       .  A
C1131      C1132   1.395       .  A
C1131      F1138   1.358       .  S
C1132      H1137   1.083       .  S
C1132      C1133   1.408       .  A
C1133      C1134   1.407       .  A
C1134      F1135   1.358       .  S
C1139      H1146   1.083       .  S
C1139      C1140   1.404       .  A
C1139      C1144   1.390       .  A
C1140      C1141   1.411       .  A
C1141      C1142   1.395       .  A
C1141      F1148   1.358       .  S
C1142      H1147   1.083       .  S
C1142      C1143   1.401       .  A
C1143      C1144   1.405       .  A
C1144      F1145   1.358       .  S
C1149      H1156   1.083       .  S
C1149      C1150   1.410       .  A
C1149      C1154   1.411       .  A
C1150      C1151   1.414       .  A
C1151      C1152   1.399       .  A
C1151      F1158   1.358       .  S
C1152      H1157   1.084   1_455  S
C1152      C1153   1.403       .  A
C1153      C1154   1.409       .  A
C1154      F1155   1.357       .  S
C1159      H1166   1.083       .  S
C1159      C1160   1.409       .  A
C1159      C1164   1.411       .  A
C1160      C1161   1.405       .  A
C1161      C1162   1.401       .  A
C1161      F1168   1.357       .  S
C1162      H1167   1.083       .  S
C1162      C1163   1.410       .  A
C1163      C1164   1.409       .  A
C1164      F1165   1.357       .  S
C1169      H1176   1.083       .  S
C1169      C1170   1.408       .  A
C1169      C1174   1.409   1_655  A
C1170      C1171   1.404       .  A
C1171      C1172   1.400       .  A
C1171      F1178   1.357       .  S
C1172      H1177   1.084       .  S
C1172      C1173   1.409   1_655  A
C1173      C1174   1.409       .  A
C1174      F1175   1.357       .  S
C1179      H1186   1.083       .  S
C1179      C1180   1.409       .  A
C1179      C1184   1.400       .  A
C1180      C1181   1.413       .  A
C1181      C1182   1.414       .  A
C1181      F1188   1.357       .  S
C1182      H1187   1.083       .  S
C1182      C1183   1.410       .  A
C1183      C1184   1.408       .  A
C1184      F1185   1.358       .  S
