geometry optimzed in LAMMPS
_audit_creation_date              2020-11-30 
_audit_creation_method            'lammps2cif' 
_symmetry_space_group_name_H-M    'P1' 
_symmetry_Int_Tables_number       1 
_symmetry_cell_setting            triclinic 
loop_ 
_symmetry_equiv_pos_as_xyz 
  x,y,z 
_cell_length_a                    43.13871769 
_cell_length_b                    43.46631355063501 
_cell_length_c                    43.18758981146571 
_cell_angle_alpha                 90.23521194225383 
_cell_angle_beta                  90.06616725220354 
_cell_angle_gamma                 89.57596698576175 
loop_ 
_atom_site_label 
_atom_site_type_symbol 
_atom_site_fract_x 
_atom_site_fract_y 
_atom_site_fract_z 
_atom_site_charge 
O1          O  0.80797571  0.54853949  0.79154788    -0.88700
C2          C  0.88569459  0.49757488  0.81326881     0.87300
Mg3        Mg  0.77527772  0.56273885  0.82661039     1.58100
O4          O  0.82783206  0.45790895  0.77215997    -0.88500
O5          O  0.81158886  0.52428667  0.74724274    -0.75800
C6          C  0.74738460  0.43310786  0.89978901     0.92400
O7          O  0.84874591  0.55250544  0.85447427    -0.75600
O8          O  0.74978163  0.46172502  0.90536395    -0.83100
Mg9        Mg  0.85556392  0.55863010  0.80203470     1.58000
C10         C  0.80015684  0.37162885  0.79829632     0.92300
O11         O  0.86775477  0.57005863  0.75232382    -0.81400
H12         H  0.80061608  0.45424430  0.73486304    -0.06700
C13         C  0.83022478  0.44688134  0.86479188     0.87200
O14         O  0.74294979  0.52291785  0.81415877    -0.75900
O15         O  0.86679036  0.51019527  0.79580679    -0.88600
O16         O  0.82483676  0.38545561  0.79038082    -0.81400
C17         C  0.90310015  0.43204943  0.74959339     0.92400
C18         C  0.88297040  0.55713450  0.73071851     0.92200
Mg19       Mg  0.77150670  0.43506234  0.82678295     1.58000
O20         O  0.75845625  0.42081184  0.87540159    -0.81400
O21         O  0.77907330  0.44532544  0.77551877    -0.75600
O22         O  0.89714805  0.46054314  0.74608238    -0.81500
O23         O  0.84206386  0.60898792  0.80529787    -0.83200
O24         O  0.73374367  0.53077009  0.88754391    -0.81500
C25         C  0.80274573  0.45218105  0.75971309     0.86700
O26         O  0.76269159  0.48255032  0.83679827    -0.88600
O27         O  0.81944820  0.44170875  0.83874531    -0.88700
O28         O  0.81915193  0.46769963  0.88238616    -0.75800
Mg29       Mg  0.85461888  0.49243081  0.75048237     1.58000
O30         O  0.88752599  0.41562219  0.76812559    -0.83200
H31         H  0.77826001  0.55619706  0.75680840    -0.06900
O32         O  0.80161210  0.53535884  0.85893012    -0.88400
H33         H  0.82830063  0.54384562  0.89584579    -0.06700
H34         H  0.72304772  0.48078190  0.81288281    -0.06900
C35         C  0.82602467  0.54404170  0.87092069     0.86700
C36         C  0.79845725  0.54380137  0.76498269     0.87200
C37         C  0.74198781  0.49468345  0.82125847     0.87300
H38         H  0.85046998  0.43412733  0.87230957    -0.06900
O39         O  0.88402020  0.46905194  0.81958368    -0.75900
Mg40       Mg  0.77647077  0.49940088  0.88150938     1.58000
H41         H  0.90380311  0.51116799  0.82373045    -0.06900
C42         C  0.81985235  0.62295043  0.81869201     0.92300
O43         O  0.74169794  0.57605559  0.86471909    -0.83100
C44         C  0.72724265  0.55916222  0.88382298     0.92300
O45         O  0.88332921  0.52821140  0.72702058    -0.83100
Mg46       Mg  0.85234722  0.42895821  0.80429774     1.58200
O47         O  0.80108879  0.60847092  0.83608403    -0.81400
O48         O  0.77973385  0.38491545  0.81500880    -0.83100
C49         C  0.77180803  0.24655609  0.75929003     0.79800
N50         N  0.78830978  0.23167884  0.73689626    -0.78500
C51         C  0.78006100  0.20296679  0.72706099     0.82300
N52         N  0.75473209  0.18952799  0.73989267    -0.78400
C53         C  0.73858019  0.20387436  0.76284545     0.82400
N54         N  0.74733478  0.23223255  0.77222528    -0.80100
O55         O  0.54068418  0.16406032  0.83863450    -0.88700
C56         C  0.49560096  0.24432749  0.81842635     0.87300
Mg57       Mg  0.55231593  0.13063134  0.80499676     1.58100
O58         O  0.44809188  0.18773663  0.85174856    -0.88500
O59         O  0.51294986  0.16564767  0.88093229    -0.75800
C60         C  0.42803780  0.11007850  0.72005487     0.92400
O61         O  0.54469199  0.20428499  0.77623044    -0.75600
O62         O  0.45726036  0.10799710  0.71987398    -0.83100
Mg63       Mg  0.55262318  0.21064617  0.82826003     1.58000
C64         C  0.35976458  0.17649303  0.80850997     0.92300
O65         O  0.56478525  0.22151270  0.87826535    -0.81400
H66         H  0.43491801  0.16143318  0.88720378    -0.06700
C67         C  0.44475641  0.19266001  0.75722453     0.87200
O68         O  0.50833511  0.10302850  0.81708347    -0.75900
O69         O  0.50519124  0.22336191  0.83515754    -0.88600
O70         O  0.37639546  0.19415335  0.82519476    -0.81400
C71         C  0.42781022  0.26310364  0.87747777     0.92400
C72         C  0.55145530  0.23335702  0.90173480     0.92200
Mg73       Mg  0.42235727  0.13723868  0.79175505     1.58000
O74         O  0.41372357  0.12622348  0.74026436    -0.81400
O75         O  0.42620122  0.14312974  0.84473528    -0.75600
O76         O  0.45503134  0.25365504  0.88373309    -0.81500
O77         O  0.60300377  0.19818391  0.81963649    -0.83200
O78         O  0.52137730  0.08861948  0.74388846    -0.81500
C79         C  0.43630336  0.16424842  0.86239217     0.86700
O80         O  0.47039412  0.12230665  0.78920337    -0.88600
O81         O  0.43747612  0.18333377  0.78317677    -0.88700
O82         O  0.46465503  0.17842984  0.74075828    -0.75800
Mg83       Mg  0.48413532  0.20986938  0.87811530     1.58000
O84         O  0.41196979  0.25095524  0.85575722    -0.83200
H85         H  0.54551167  0.13289554  0.87220883    -0.06900
O86         O  0.52768680  0.15730512  0.77114867    -0.88400
H87         H  0.53602597  0.18417500  0.73468615    -0.06700
H88         H  0.46440171  0.08650262  0.81746862    -0.06900
C89         C  0.53645434  0.18167650  0.75957957     0.86700
C90         C  0.53401905  0.15361482  0.86430672     0.87200
C91         C  0.48022972  0.10316938  0.80802771     0.87300
H92         H  0.43433275  0.21360285  0.74854082    -0.06900
O93         O  0.46787669  0.24498407  0.80868553    -0.75900
Mg94       Mg  0.49297432  0.13346424  0.74615097     1.58000
H95         H  0.51148290  0.26196986  0.81107378    -0.06900
C96         C  0.61452898  0.17713175  0.80252179     0.92300
O97         O  0.56489469  0.09447657  0.77040007    -0.83100
C98         C  0.54887169  0.08018260  0.75042794     0.92300
O99         O  0.52213942  0.23365108  0.90499672    -0.83100
Mg100      Mg  0.42459479  0.21635788  0.81822518     1.58200
O101        O  0.59867267  0.15411206  0.79363357    -0.81400
O102        O  0.37208165  0.15443322  0.79325846    -0.83100
O103        O  0.16684934  0.45213175  0.78326929    -0.88700
C104        C  0.08665574  0.49896787  0.80534248     0.87300
Mg105      Mg  0.19873971  0.43939996  0.81948778     1.58100
O106        O  0.14344474  0.54277420  0.76763362    -0.88500
O107        O  0.16336736  0.47819773  0.74021101    -0.75800
C108        C  0.21735097  0.56861326  0.89956339     0.92400
O109        O  0.12412381  0.44443626  0.84487226    -0.75600
O110        O  0.21525282  0.53974098  0.90351804    -0.83100
Mg111      Mg  0.11938252  0.43968894  0.79205555     1.58000
C112        C  0.16508714  0.62955932  0.79645292     0.92300
O113        O  0.10877495  0.42921672  0.74134856    -0.81400
H114        H  0.17144819  0.54915232  0.73140444    -0.06700
C115        C  0.13708213  0.55219592  0.86019374     0.87200
O116        O  0.22891452  0.48171988  0.81012680    -0.75900
O117        O  0.10639887  0.48788503  0.78769066    -0.88600
O118        O  0.14184313  0.61388077  0.78771284    -0.81400
C119        C  0.06697896  0.56554926  0.74413864     0.92400
C120        C  0.09309516  0.44296046  0.72059802     0.92200
Mg121      Mg  0.19652711  0.56832031  0.82498968     1.58000
O122        O  0.20767120  0.58163308  0.87498192    -0.81400
O123        O  0.19095583  0.55892335  0.77303078    -0.75600
O124        O  0.07460477  0.53762538  0.73940382    -0.81500
O125        O  0.13450938  0.38968695  0.79469961    -0.83200
O126        O  0.23596109  0.47322093  0.88263646    -0.81500
C127        C  0.16841229  0.55052404  0.75621941     0.86700
O128        O  0.20707561  0.52091198  0.83341947    -0.88600
O129        O  0.14880031  0.55832950  0.83488055    -0.88700
O130        O  0.14776376  0.53096561  0.87730462    -0.75800
Mg131      Mg  0.11879831  0.50790786  0.74373859     1.58000
O132        O  0.08153348  0.58193756  0.76360467    -0.83200
H133        H  0.19788699  0.44742651  0.74918390    -0.06900
O134        O  0.16956890  0.46491652  0.85115897    -0.88400
H135        H  0.14287469  0.45345736  0.88707681    -0.06700
H136        H  0.24712616  0.52463071  0.81056634    -0.06900
C137        C  0.14568693  0.45413681  0.86222523     0.86700
C138        C  0.17689700  0.45850493  0.75732358     0.87200
C139        C  0.22855250  0.50985484  0.81804340     0.87300
H140        H  0.11619995  0.56421772  0.86722226    -0.06900
O141        O  0.08679668  0.52729495  0.81295546    -0.75900
Mg142      Mg  0.19186365  0.50164787  0.87647428     1.58000
H143        H  0.06913957  0.48413125  0.81490881    -0.06900
C144        C  0.15676715  0.37578356  0.80805105     0.92300
O145        O  0.23035867  0.42746302  0.85961533    -0.83100
C146        C  0.24298366  0.44490957  0.87968378     0.92300
O147        O  0.09211804  0.47197801  0.71879939    -0.83100
Mg148      Mg  0.11643992  0.56942914  0.79986270     1.58200
O149        O  0.17631944  0.39067220  0.82451419    -0.81400
O150        O  0.18571480  0.61855273  0.81448979    -0.83100
C151        C  0.19746484  0.21406176  0.73154592     0.79800
N152        N  0.18407415  0.23927126  0.74508980    -0.78500
C153        C  0.19575588  0.25156597  0.77181734     0.82300
N154        N  0.22121849  0.23806397  0.78467051    -0.78400
C155        C  0.23472033  0.21254539  0.77193449     0.82400
N156        N  0.22271576  0.20093726  0.74524117    -0.80100
O157        O  0.42852039  0.82657513  0.82679791    -0.88700
C158        C  0.48307288  0.74976334  0.81267572     0.87300
Mg159      Mg  0.41834855  0.85974443  0.79195522     1.58100
O160        O  0.51956787  0.81036962  0.85228637    -0.88500
O161        O  0.45018199  0.82641433  0.87254947    -0.75800
C162        C  0.55144411  0.89057140  0.72586442     0.92400
O163        O  0.43633371  0.78680481  0.76433961    -0.75600
O164        O  0.52248671  0.88996277  0.72117831    -0.83100
Mg165      Mg  0.42233750  0.77888587  0.81482198     1.58000
C166        C  0.61091936  0.82674442  0.82070220     0.92300
O167        O  0.40448738  0.76534867  0.86300431    -0.81400
H168        H  0.52562975  0.83719138  0.88952819    -0.06700
C169        C  0.53586277  0.80628657  0.75950104     0.87200
O170        O  0.45817563  0.89053938  0.80990141    -0.75900
O171        O  0.46936554  0.76975620  0.82791234    -0.88600
O172        O  0.59283755  0.81184699  0.83828690    -0.81400
C173        C  0.54399539  0.73832605  0.88110484     0.92400
C174        C  0.41562681  0.75519489  0.88837106     0.92200
Mg175      Mg  0.54957389  0.86303243  0.79689799     1.58000
O176        O  0.56425238  0.87538074  0.74754711    -0.81400
O177        O  0.53908751  0.85640822  0.84891389    -0.75600
O178        O  0.51498362  0.74362638  0.88288766    -0.81500
O179        O  0.37302794  0.78792421  0.79992361    -0.83200
O180        O  0.45358828  0.90466619  0.73502687    -0.81500
C181        C  0.52797089  0.83453093  0.86474572     0.86700
O182        O  0.50113055  0.87460237  0.78777970    -0.94600
O183        O  0.53892225  0.81610205  0.78619208    -0.88700
O184        O  0.51735051  0.81907847  0.74050871    -0.75800
Mg185      Mg  0.48293250  0.78484733  0.87349146     1.58000
O186        O  0.56114221  0.75199628  0.86173485    -0.83200
H187        H  0.41666687  0.85676309  0.85979906    -0.06900
O188        O  0.44911138  0.83530492  0.76139009    -0.88400
H189        H  0.44807043  0.80779531  0.72421536    -0.06700
H190        H  0.50008514  0.91045273  0.81694055    -0.06900
C191        C  0.44426921  0.81019454  0.74884989     0.86700
C192        C  0.43076232  0.83711715  0.85328170     0.87200
C193        C  0.48720314  0.89267990  0.80514662     0.87300
H194        H  0.54884237  0.78614088  0.75230259    -0.06900
O195        O  0.51186291  0.75154811  0.80704005    -0.75900
Mg196      Mg  0.48524041  0.86190417  0.74182221     1.58000
H197        H  0.47005665  0.73079337  0.80313752    -0.06900
C198        C  0.36056597  0.80855718  0.78305345     0.92300
O199        O  0.40752370  0.89560393  0.75544582    -0.83100
C200        C  0.42489519  0.91118400  0.73770885     0.92300
O201        O  0.44410631  0.75804935  0.89534755    -0.83100
Mg202      Mg  0.55016360  0.78437366  0.82279628     1.58200
O203        O  0.37499481  0.83298096  0.77575810    -0.81400
O204        O  0.60023982  0.84805174  0.80354205    -0.83100
C205        C  0.23429006  0.78280138  0.74542530     0.79800
N206        N  0.22003837  0.75912942  0.75966043    -0.78500
C207        C  0.19087214  0.75088186  0.75193450     0.82300
N208        N  0.17562784  0.76660566  0.72938435    -0.78400
C209        C  0.18922219  0.79099116  0.71524216     0.82400
N210        N  0.21864595  0.79903225  0.72343410    -0.80100
O211        O  0.54062927  0.82592282  0.17615555    -0.88700
C212        C  0.49149203  0.90327951  0.15294668     0.87300
Mg213      Mg  0.55355314  0.79344487  0.14031260     1.58100
O214        O  0.44886569  0.84533769  0.19096397    -0.88500
O215        O  0.51450013  0.82842115  0.21925871    -0.75800
C216        C  0.42439743  0.76622604  0.06232472     0.92400
O217        O  0.54720149  0.86509941  0.11383602    -0.75600
O218        O  0.45355754  0.76713381  0.05806995    -0.83100
Mg219      Mg  0.55285406  0.87274914  0.16668606     1.58000
C220        C  0.36244186  0.82092669  0.16193775     0.92300
O221        O  0.56211236  0.88890214  0.21732403    -0.81400
H222        H  0.44274629  0.81866622  0.22802181    -0.06700
C223        C  0.43848175  0.84861732  0.09809294     0.87200
O224        O  0.51264588  0.76232278  0.15250554    -0.75900
O225        O  0.50357976  0.88489646  0.17123736    -0.88600
O226        O  0.37692526  0.84485359  0.17058605    -0.81400
C227        C  0.42203298  0.91959707  0.21545784     0.92400
C228        C  0.54616293  0.90183835  0.23868648     0.92200
Mg229      Mg  0.42510101  0.79085394  0.13521577     1.58000
O230        O  0.41145513  0.77872179  0.08566839    -0.81400
O231        O  0.43396401  0.79763764  0.18696954    -0.75600
O232        O  0.45035987  0.91307117  0.22078103    -0.81500
O233        O  0.60425644  0.85587323  0.16459885    -0.83200
O234        O  0.52128547  0.75289938  0.07880587    -0.81500
C235        C  0.44155005  0.82079153  0.20311605     0.86700
O236        O  0.47275941  0.78097710  0.12731300    -0.88600
O237        O  0.43389977  0.83826912  0.12426041    -0.88700
O238        O  0.45911211  0.83727410  0.08045664    -0.75800
Mg239      Mg  0.48274445  0.87103296  0.21506387     1.58000
O240        O  0.40668237  0.90567858  0.19472274    -0.83200
H241        H  0.54751597  0.79599022  0.21054206    -0.06900
O242        O  0.52613356  0.81995280  0.10812635    -0.88400
H243        H  0.53685957  0.84633969  0.07189441    -0.06700
H244        H  0.47012597  0.74267679  0.15261211    -0.06900
C245        C  0.53664034  0.84369949  0.09676871     0.86700
C246        C  0.53508439  0.81601540  0.20226589     0.87200
C247        C  0.48447551  0.76107771  0.14409792     0.87300
H248        H  0.42537733  0.86848606  0.09048847    -0.06900
O249        O  0.46300977  0.90151425  0.14534382    -0.75900
Mg250      Mg  0.49067416  0.79482772  0.08334596     1.58000
H251        H  0.50559059  0.92103717  0.14280820    -0.06900
C252        C  0.61598799  0.83426305  0.14810366     0.92300
O253        O  0.56665459  0.75956928  0.10238829    -0.83100
C254        C  0.54945137  0.74554469  0.08307356     0.92300
O255        O  0.51712829  0.89844775  0.24035438    -0.83100
Mg256      Mg  0.42123248  0.87103607  0.15855696     1.58200
O257        O  0.59890726  0.81921499  0.12937649    -0.81400
O258        O  0.37503995  0.80048036  0.14492348    -0.83100
O259        O  0.12243487  0.83502767  0.43348537    -0.88700
C260        C  0.13707674  0.76352226  0.49231572     0.87300
Mg261      Mg  0.15837000  0.86510090  0.41862879     1.58100
O262        O  0.10117316  0.82967812  0.52275787    -0.88500
O263        O  0.07633079  0.83767378  0.45385319    -0.75800
C264        C  0.23545962  0.90774699  0.54314098     0.92400
O265        O  0.18357593  0.79344259  0.44130540    -0.75600
O266        O  0.23954319  0.90304939  0.51441698    -0.83100
Mg267      Mg  0.13214842  0.78630705  0.42977899     1.58000
C268        C  0.13928264  0.85418676  0.60859020     0.92300
O269        O  0.08246641  0.77301179  0.41493675    -0.81400
H270        H  0.06613513  0.85995529  0.52577554    -0.06700
C271        C  0.19521368  0.82503692  0.53776138     0.87200
O272        O  0.14432671  0.90210354  0.45420211    -0.75900
O273        O  0.12121681  0.78209350  0.47742197    -0.88600
O274        O  0.11862360  0.84174679  0.59187074    -0.81400
C275        C  0.07430938  0.75962864  0.55665511     0.92400
C276        C  0.05787373  0.76359774  0.42813740     0.92200
Mg277      Mg  0.16101624  0.88458298  0.54535425     1.58000
O278        O  0.21150384  0.89767751  0.55704141    -0.81400
O279        O  0.10833833  0.87784042  0.53617821    -0.75600
O280        O  0.06974927  0.76334363  0.52778639    -0.81500
O281        O  0.14487425  0.78979026  0.37950547    -0.83200
O282        O  0.22314884  0.90818102  0.44311337    -0.81500
C283        C  0.09075135  0.85576591  0.52810102     0.86700
O284        O  0.16966366  0.89101586  0.49668244    -0.88600
O285        O  0.16885592  0.83610280  0.53847585    -0.88700
O286        O  0.21499075  0.83442610  0.51837792    -0.75800
Mg287      Mg  0.07683362  0.80021293  0.49101137     1.58000
O288        O  0.09375216  0.77575870  0.57160664    -0.83200
H289        H  0.08992638  0.86400625  0.41770906    -0.06900
O290        O  0.18975476  0.84267316  0.45025145    -0.88400
H291        H  0.22523845  0.81284273  0.45041230    -0.06700
H292        H  0.14263810  0.92839703  0.49311973    -0.06900
C293        C  0.20063316  0.81644685  0.44712851     0.86700
C294        C  0.09605047  0.84613923  0.43397629     0.87200
C295        C  0.15219729  0.90819152  0.48189428     0.87300
H296        H  0.20140993  0.80682313  0.55361456    -0.06900
O297        O  0.14506091  0.76886131  0.52011602    -0.75900
Mg298      Mg  0.21415671  0.87221428  0.48122731     1.58000
H299        H  0.14527038  0.74276549  0.48103911    -0.06900
C300        C  0.16314060  0.80859532  0.36661995     0.92300
O301        O  0.19606217  0.89595846  0.40117962    -0.83100
C302        C  0.21767619  0.91077651  0.41421986     0.92300
O303        O  0.05249454  0.76880248  0.45668963    -0.83100
Mg304      Mg  0.13187191  0.80691837  0.55465863     1.58200
O305        O  0.17142714  0.83339069  0.37958196    -0.81400
O306        O  0.15629800  0.87485071  0.59703970    -0.83100
C307        C  0.24157465  0.78540779  0.20362796     0.79800
N308        N  0.23157211  0.75804895  0.19250181    -0.78500
C309        C  0.20766577  0.74340921  0.20599030     0.82300
N310        N  0.19399103  0.75574473  0.23116858    -0.78400
C311        C  0.20363912  0.78286609  0.24289590     0.82400
N312        N  0.22787119  0.79752779  0.22936488    -0.80100
O313        O  0.14969513  0.55189692  0.13815627    -0.88700
C314        C  0.22825967  0.49928936  0.14913499     0.87300
Mg315      Mg  0.11875835  0.56595805  0.17466681     1.58100
O316        O  0.16491130  0.46259585  0.11412541    -0.88500
O317        O  0.14905271  0.53112938  0.09200527    -0.75800
C318        C  0.08751588  0.43708178  0.24530170     0.92400
O319        O  0.19322391  0.54554158  0.19788441    -0.75600
O320        O  0.08601007  0.46590792  0.24971457    -0.83100
Mg321      Mg  0.19846466  0.55785428  0.14656692     1.58000
C322        C  0.14854859  0.37476038  0.15381157     0.92300
O323        O  0.20880347  0.57498172  0.09771084    -0.81400
H324        H  0.13457485  0.45613814  0.07966847    -0.06700
C325        C  0.17185672  0.45100862  0.20884915     0.87200
O326        O  0.08451057  0.52753468  0.16105720    -0.75900
O327        O  0.20688492  0.51164492  0.13474569    -0.88600
O328        O  0.16284565  0.39102568  0.13405988    -0.81400
C329        C  0.23750472  0.43648244  0.08503973     0.92400
C330        C  0.22091497  0.56383381  0.07328056     0.92200
Mg331      Mg  0.11387774  0.43760426  0.17520855     1.58000
O332        O  0.10676415  0.42577827  0.22606561    -0.81400
O333        O  0.11789930  0.44568277  0.12234214    -0.75600
O334        O  0.23088298  0.46477927  0.08117876    -0.81500
O335        O  0.19177136  0.60615065  0.15897344    -0.83200
O336        O  0.07572883  0.53659923  0.23636358    -0.81500
C337        C  0.13918314  0.45484794  0.10423215     0.86700
O338        O  0.10258280  0.48595948  0.18299911    -0.88600
O339        O  0.16157130  0.44842449  0.18226877    -0.88700
O340        O  0.15896661  0.46882056  0.22852643    -0.75800
Mg341      Mg  0.19061491  0.49775896  0.09024670     1.58000
O342        O  0.22411582  0.42032322  0.10550009    -0.83200
H343        H  0.11835058  0.56385759  0.10618222    -0.06900
O344        O  0.14399172  0.53646989  0.20628969    -0.88400
H345        H  0.17549057  0.53622315  0.24025666    -0.06700
H346        H  0.06347948  0.48592606  0.15805260    -0.06900
C347        C  0.17079988  0.53967841  0.21591734     0.86700
C348        C  0.13831717  0.54985929  0.11198101     0.87200
C349        C  0.08264598  0.49902830  0.16716467     0.87300
H350        H  0.19209950  0.43781908  0.21554283    -0.06900
O351        O  0.22681758  0.47136043  0.15708177    -0.75900
Mg352      Mg  0.11655192  0.50213922  0.22826002     1.58000
H353        H  0.24798240  0.51286196  0.15612990    -0.06900
C354        C  0.17277126  0.62052475  0.17600673     0.92300
O355        O  0.08585578  0.58095637  0.21308231    -0.83100
C356        C  0.07109752  0.56546500  0.23311018     0.92300
O357        O  0.21941376  0.53526591  0.06677707    -0.83100
Mg358      Mg  0.19202796  0.43387255  0.14500195     1.58200
O359        O  0.14814996  0.60827547  0.18626382    -0.81400
O360        O  0.12767215  0.38679877  0.17076607    -0.83100
O361        O  0.42333098  0.18292153  0.17442117    -0.88700
C362        C  0.47616316  0.10496448  0.16354484     0.87300
Mg363      Mg  0.41049280  0.21140702  0.13533928     1.58100
O364        O  0.51342741  0.16771696  0.20021588    -0.88500
O365        O  0.44437273  0.18398883  0.22044935    -0.75800
C366        C  0.54338144  0.23707371  0.06682313     0.92400
O367        O  0.42359430  0.13714670  0.11597966    -0.75600
O368        O  0.51469153  0.23590858  0.06030881    -0.83100
Mg369      Mg  0.41368509  0.13496497  0.16858480     1.58000
C370        C  0.60049234  0.19385775  0.17084893     0.92300
O371        O  0.39985946  0.12711814  0.21932018    -0.81400
H372        H  0.51450178  0.19917249  0.23408510    -0.06700
C373        C  0.52929209  0.15716892  0.10753432     0.87200
O374        O  0.44832226  0.24614793  0.14753823    -0.75900
O375        O  0.46233068  0.12517353  0.17837518    -0.88600
O376        O  0.58773979  0.16979838  0.18170704    -0.81400
C377        C  0.54042377  0.09604271  0.23077142     0.92400
C378        C  0.41238386  0.11237868  0.24148538     0.92200
Mg379      Mg  0.53716095  0.21820823  0.14011743     1.58000
O380        O  0.55458509  0.22499590  0.09108883    -0.81400
O381        O  0.52469898  0.21590478  0.19155714    -0.75600
O382        O  0.51162994  0.10228507  0.23351819    -0.81500
O383        O  0.36255148  0.14811520  0.16120216    -0.83200
O384        O  0.44483611  0.24805499  0.07331008    -0.81500
C385        C  0.51780460  0.19417254  0.20976508     0.86700
O386        O  0.49017818  0.22560847  0.12792580    -0.88600
O387        O  0.53128109  0.16964250  0.13321362    -0.88700
O388        O  0.51039992  0.16681760  0.08714410    -0.75800
Mg389      Mg  0.47792249  0.14224773  0.22293631     1.58000
O390        O  0.55734056  0.10948616  0.21096177    -0.83200
H391        H  0.41233895  0.21521137  0.20573998    -0.06900
O392        O  0.44089593  0.18341336  0.10706137    -0.88400
H393        H  0.43557159  0.15234554  0.07320387    -0.06700
H394        H  0.49028746  0.26693989  0.14843008    -0.06900
C395        C  0.43343411  0.15765055  0.09758324     0.86700
C396        C  0.42588462  0.19489621  0.20027017     0.87200
C397        C  0.47697545  0.24718821  0.14122559     0.87300
H398        H  0.54341964  0.13711551  0.10259097    -0.06900
O399        O  0.50505193  0.10677350  0.15807659    -0.75900
Mg400      Mg  0.47697526  0.20806020  0.08367424     1.58000
H401        H  0.46335979  0.08555385  0.15468097    -0.06900
C402        C  0.35086251  0.16785434  0.14282080     0.92300
O403        O  0.39814631  0.24129377  0.09406706    -0.83100
C404        C  0.41620450  0.25467934  0.07521322     0.92300
O405        O  0.44136172  0.11385668  0.24634441    -0.83100
Mg406      Mg  0.54410230  0.14068193  0.17099222     1.58200
O407        O  0.36793166  0.18205522  0.12366148    -0.81400
O408        O  0.58625973  0.21209153  0.15299902    -0.83100
C409        C  0.19673164  0.21396810  0.22538113     0.79800
N410        N  0.22147374  0.20204066  0.20977883    -0.78500
C411        C  0.23134110  0.21438908  0.18268466     0.82300
N412        N  0.21603921  0.23923214  0.17103978    -0.78400
C413        C  0.19096621  0.25151170  0.18593397     0.82400
N414        N  0.18170680  0.23892918  0.21322127    -0.80100
O415        O  0.15137596  0.14311894  0.42681413    -0.88700
C416        C  0.22759015  0.16621600  0.47814483     0.87300
Mg417      Mg  0.11811297  0.17583734  0.41318900     1.58100
O418        O  0.16844698  0.13232536  0.52183241    -0.88500
O419        O  0.15080844  0.10247518  0.45656133    -0.75800
C420        C  0.08282175  0.25780249  0.53706744     0.92400
O421        O  0.18986938  0.20699910  0.42551511    -0.75600
O422        O  0.08272570  0.25780388  0.50776232    -0.83100
Mg423      Mg  0.19889121  0.15536110  0.41872788     1.58000
C424        C  0.15254651  0.17581234  0.60959841     0.92300
O425        O  0.21268598  0.10605673  0.40861119    -0.81400
H426        H  0.14402490  0.09572876  0.53508317    -0.06700
C427        C  0.17035396  0.22589471  0.52559932     0.87200
O428        O  0.08769039  0.16304549  0.45591285    -0.75900
O429        O  0.20748004  0.14935035  0.46702533    -0.88600
O430        O  0.16894619  0.15708986  0.59360983    -0.81400
C431        C  0.24184355  0.10641156  0.54625054     0.92400
C432        C  0.22185371  0.08174111  0.42223270     0.92200
Mg433      Mg  0.11493262  0.18941752  0.54557783     1.58000
O434        O  0.10063234  0.24002273  0.55238805    -0.81400
O435        O  0.12308025  0.13696656  0.54342689    -0.75600
O436        O  0.23681661  0.10285430  0.51747128    -0.81500
O437        O  0.19064529  0.16292923  0.36718638    -0.83200
O438        O  0.06968134  0.23111991  0.44319147    -0.81500
C439        C  0.14535102  0.12047307  0.53346545     0.86700
O440        O  0.10332166  0.19000889  0.49609885    -0.88600
O441        O  0.16183544  0.19979639  0.53279662    -0.88700
O442        O  0.15632193  0.24130218  0.50479250    -0.75800
Mg443      Mg  0.19350561  0.10638920  0.48736161     1.58000
O444        O  0.22777519  0.12686038  0.56222050    -0.83200
H445        H  0.12051956  0.10947819  0.42136545    -0.06900
O446        O  0.14163231  0.20973558  0.44039058    -0.88400
H447        H  0.16706573  0.24730649  0.43324029    -0.06700
H448        H  0.06828058  0.16021523  0.49873027    -0.06900
C449        C  0.16592233  0.22248016  0.43279488     0.86700
C450        C  0.14050366  0.11787290  0.43386000     0.87200
C451        C  0.08572004  0.17077914  0.48441070     0.87300
H452        H  0.19029871  0.23571636  0.53701304    -0.06900
O453        O  0.22644426  0.17528938  0.50609312    -0.75900
Mg454      Mg  0.11324404  0.23306921  0.47380845     1.58000
H455        H  0.24618487  0.17409049  0.46348052    -0.06900
C456        C  0.16958250  0.17831042  0.35332210     0.92300
O457        O  0.08290887  0.21031735  0.39824340    -0.83100
C458        C  0.06562189  0.22789388  0.41422877     0.92300
O459        O  0.21915442  0.07839860  0.45128833    -0.83100
Mg460      Mg  0.19490564  0.16520496  0.54753796     1.58200
O461        O  0.14492050  0.18659979  0.36751610    -0.81400
O462        O  0.13038569  0.19078046  0.59698573    -0.83100
O463        O  0.82144825  0.44735584  0.12374289    -0.88700
C464        C  0.74519246  0.50091620  0.14514103     0.87300
Mg465      Mg  0.85528892  0.43251526  0.15599952     1.58100
O466        O  0.80551933  0.53936596  0.10752782    -0.88500
O467        O  0.81997687  0.47246358  0.08006736    -0.75800
C468        C  0.88982273  0.55594084  0.23514012     0.92400
O469        O  0.78293987  0.45003552  0.18847626    -0.75600
O470        O  0.88955658  0.52695587  0.23683285    -0.83100
Mg471      Mg  0.77362839  0.44146052  0.13726748     1.58000
C472        C  0.82465471  0.62570170  0.14931329     0.92300
O473        O  0.75890870  0.42825004  0.08915188    -0.81400
H474        H  0.83110421  0.54901247  0.07024406    -0.06700
C475        C  0.80471954  0.54605511  0.20158019     0.87200
O476        O  0.88756096  0.47247553  0.14191729    -0.75900
O477        O  0.76541611  0.48880249  0.12887715    -0.88600
O478        O  0.80948389  0.60993677  0.12964741    -0.81400
C479        C  0.73193211  0.56606931  0.08399863     0.92400
C480        C  0.74706427  0.44044734  0.06523935     0.92200
Mg481      Mg  0.86103950  0.56211062  0.16404201     1.58000
O482        O  0.87551182  0.57037640  0.21385802    -0.81400
O483        O  0.85231811  0.55764604  0.11140425    -0.75600
O484        O  0.73752867  0.53756645  0.08016189    -0.81500
O485        O  0.78092101  0.39162619  0.14666275    -0.83200
O486        O  0.90242264  0.46033984  0.21434989    -0.81500
C487        C  0.82947707  0.54866548  0.09521119     0.86700
O488        O  0.87184041  0.51313251  0.16769054    -0.88600
O489        O  0.81370677  0.55157705  0.17505060    -0.88700
O490        O  0.81792084  0.52569348  0.21813817    -0.75800
Mg491      Mg  0.77855827  0.50523710  0.08397276     1.58000
O492        O  0.74672378  0.58219063  0.10364990    -0.83200
H493        H  0.85045717  0.43788417  0.08890122    -0.06900
O494        O  0.83227408  0.46042898  0.19001125    -0.88400
H495        H  0.80687514  0.45621221  0.22840176    -0.06700
H496        H  0.90813802  0.51428869  0.13894139    -0.06900
C497        C  0.80766349  0.45505906  0.20340277     0.86700
C498        C  0.83114977  0.45156231  0.09722867     0.87200
C499        C  0.88999374  0.50074421  0.14926361     0.87300
H500        H  0.78495821  0.55849936  0.21074378    -0.06900
O501        O  0.74698012  0.52885064  0.15341423    -0.75900
Mg502      Mg  0.86025609  0.49325445  0.21227256     1.58000
H503        H  0.72606932  0.48718758  0.15323624    -0.06900
C504        C  0.80230137  0.37677133  0.16023700     0.92300
O505        O  0.89000072  0.41644845  0.19106869    -0.83100
C506        C  0.90571636  0.43139504  0.21077651     0.92300
O507        O  0.74926945  0.46905791  0.05968053    -0.83100
Mg508      Mg  0.78070582  0.56718256  0.14076424     1.58200
O509        O  0.82782228  0.38927575  0.16770590    -0.81400
O510        O  0.84704706  0.61349038  0.16414280    -0.83100
O511        O  0.81493241  0.19384395  0.53928607    -0.88700
C512        C  0.88565379  0.16970254  0.48254858     0.87300
Mg513      Mg  0.78336103  0.15985096  0.55645686     1.58100
O514        O  0.82263946  0.21000112  0.44984130    -0.88500
O515        O  0.81584119  0.23849032  0.51678789    -0.75800
C516        C  0.73342393  0.08619220  0.43261207     0.92400
O517        O  0.85256790  0.13048720  0.53826510    -0.75600
O518        O  0.73762090  0.08208325  0.46145988    -0.83100
Mg519      Mg  0.86293855  0.18234371  0.54562671     1.58000
C520        C  0.78669195  0.18308787  0.36631421     0.92300
O521        O  0.87949369  0.23156905  0.55556428    -0.81400
H522        H  0.79624128  0.24788086  0.44712568    -0.06700
C523        C  0.81967935  0.11686926  0.43663988     0.87200
O524        O  0.74622295  0.17488987  0.52126783    -0.75900
O525        O  0.86948880  0.18857244  0.49685975    -0.88600
O526        O  0.81183553  0.19113586  0.37914314    -0.81400
C527        C  0.89244585  0.23223371  0.41392417     0.92400
C528        C  0.89099586  0.25422696  0.54102517     0.92200
Mg529      Mg  0.76244278  0.15712652  0.43063028     1.58000
O530        O  0.74573627  0.10847907  0.41818241    -0.81400
O531        O  0.77312462  0.20810029  0.43934977    -0.75600
O532        O  0.89147793  0.23645015  0.44301223    -0.81500
O533        O  0.85366477  0.17943388  0.59728751    -0.83200
O534        O  0.73347244  0.10307926  0.53065045    -0.81500
C535        C  0.79756363  0.22310491  0.44525558     0.86700
O536        O  0.75768420  0.14944990  0.47892942    -0.88600
O537        O  0.81052547  0.14375513  0.43469499    -0.88700
O538        O  0.80946230  0.09911019  0.45741655    -0.75800
Mg539      Mg  0.85395838  0.23320710  0.48005181     1.58000
O540        O  0.87571765  0.21214436  0.40085979    -0.83200
H541        H  0.78747594  0.22862485  0.55284084    -0.06900
O542        O  0.80366239  0.12714913  0.52515141    -0.88400
H543        H  0.83098966  0.08999454  0.52919885    -0.06700
H544        H  0.72043003  0.17696158  0.48195653    -0.06900
C545        C  0.82892049  0.11473291  0.53077185     0.86700
C546        C  0.80540183  0.22056001  0.53727333     0.87200
C547        C  0.74044202  0.16717126  0.49345734     0.87300
H548        H  0.83727944  0.10854891  0.42084181    -0.06900
O549        O  0.87919934  0.16161304  0.45498040    -0.75900
Mg550      Mg  0.77165326  0.10470770  0.49435409     1.58000
H551        H  0.90526605  0.15917952  0.49408298    -0.06900
C552        C  0.83311671  0.16363103  0.61070166     0.92300
O553        O  0.75047865  0.12420695  0.57442776    -0.83100
C554        C  0.73235461  0.10638048  0.55986942     0.92300
O555        O  0.88658305  0.25805874  0.51221721    -0.83100
Mg556      Mg  0.84298342  0.17690416  0.41885311     1.58200
O557        O  0.81673006  0.14509392  0.59495090    -0.81400
O558        O  0.76700710  0.16619120  0.37972955    -0.83100
C559        C  0.76854968  0.25571930  0.20103352     0.79800
N560        N  0.77871562  0.24304432  0.22784885    -0.78500
C561        C  0.76371655  0.21889134  0.24070515     0.82300
N562        N  0.73778746  0.20786857  0.22695713    -0.78400
C563        C  0.72733797  0.22025597  0.20018021     0.82400
N564        N  0.74250094  0.24435092  0.18764554    -0.80100
O565        O  0.78615106  0.79620113  0.43409306    -0.88700
C566        C  0.86746173  0.81383309  0.48040479     0.87300
Mg567      Mg  0.75699420  0.83400260  0.41968177     1.58100
O568        O  0.80858457  0.78185854  0.52663816    -0.88500
O569        O  0.78708141  0.75417555  0.46186282    -0.75800
C570        C  0.74243134  0.91905545  0.54453861     0.92400
O571        O  0.83312708  0.85345666  0.42324043    -0.75600
O572        O  0.74501198  0.92086200  0.51538192    -0.83100
Mg573      Mg  0.83396466  0.80060731  0.42087093     1.58000
C574        C  0.78828893  0.81810890  0.61333263     0.92300
O575        O  0.84012713  0.74890212  0.41317006    -0.81400
H576        H  0.77772876  0.74872251  0.53453812    -0.06700
C577        C  0.82127505  0.87370497  0.53108603     0.87200
O578        O  0.72576576  0.82814006  0.46231565    -0.75900
O579        O  0.84629943  0.79781109  0.46989895    -0.88600
O580        O  0.81131582  0.80612810  0.59887540    -0.81400
C581        C  0.88444955  0.75518199  0.54866491     0.92400
C582        C  0.85915968  0.73140707  0.42717783     0.92200
Mg583      Mg  0.75954144  0.84439212  0.54876994     1.58000
O584        O  0.75169397  0.89566553  0.55974198    -0.81400
O585        O  0.76143232  0.79201621  0.54208250    -0.75600
O586        O  0.87557416  0.75031611  0.52101242    -0.81500
O587        O  0.81873482  0.80224950  0.37029829    -0.83200
O588        O  0.72380969  0.90019040  0.45068786    -0.81500
C589        C  0.78268821  0.77305701  0.53470656     0.86700
O590        O  0.74965532  0.85088444  0.50055797    -0.88600
O591        O  0.80795490  0.84987688  0.53892077    -0.88700
O592        O  0.81143318  0.89034947  0.50902253    -0.75800
Mg593      Mg  0.83185206  0.75571252  0.49161671     1.58000
O594        O  0.87105889  0.77493985  0.56593275    -0.83200
H595        H  0.75294374  0.76444513  0.43100234    -0.06900
O596        O  0.78828886  0.86372632  0.44399970    -0.88400
H597        H  0.81720369  0.89693876  0.43079963    -0.06700
H598        H  0.70807748  0.83156269  0.50573813    -0.06900
C599        C  0.81279982  0.87257557  0.43252169     0.86700
C600        C  0.77448021  0.77144362  0.44162757     0.87200
C601        C  0.72699423  0.83694439  0.49033031     0.87300
H602        H  0.84272102  0.87980876  0.54246401    -0.06900
O603        O  0.86817774  0.82187990  0.50879698    -0.75900
Mg604      Mg  0.76748380  0.89163279  0.47934313     1.58000
H605        H  0.88562977  0.82139988  0.46506769    -0.06900
C606        C  0.79820638  0.81858926  0.35679637     0.92300
O607        O  0.72790279  0.87545490  0.40558143    -0.83100
C608        C  0.71670746  0.89697671  0.42232425     0.92300
O609        O  0.85918272  0.72941362  0.45636906    -0.83100
Mg610      Mg  0.83781283  0.81313303  0.55222367     1.58200
O611        O  0.78150595  0.83759076  0.37208821    -0.81400
O612        O  0.76936417  0.83600280  0.59959906    -0.83100
C613        C  0.77311602  0.74281218  0.19124194     0.79800
N614        N  0.74838380  0.75590558  0.17637865    -0.78500
C615        C  0.73444889  0.78184881  0.18776610     0.82300
N616        N  0.74552724  0.79423072  0.21459830    -0.78400
C617        C  0.77012031  0.78152194  0.22988064     0.82400
N618        N  0.78370004  0.75568636  0.21797925    -0.80100
C619        C  0.72975634  0.77754835  0.78244248     0.79800
N620        N  0.74570272  0.75345337  0.79485930    -0.78500
C621        C  0.77150175  0.74187776  0.78069716     0.82300
N622        N  0.78067102  0.75437966  0.75326711    -0.78400
C623        C  0.76513887  0.77857613  0.74050324     0.82400
N624        N  0.73974931  0.78990774  0.75542786    -0.80100
C625        C  0.95934426  0.63067582  0.65147762     0.01900
C626        C  0.99149093  0.63207808  0.65711732     0.01900
C627        C  0.00992671  0.65131862  0.63909532    -0.18600
C628        C  0.99674330  0.67023292  0.61643524     0.01900
C629        C  0.96440792  0.66956746  0.61126609     0.01900
C630        C  0.94613067  0.64939877  0.62861587    -0.18600
H631        H  0.92118206  0.64945481  0.62546284     0.03900
H632        H  0.03467683  0.65231207  0.64343538     0.03900
C633        C  0.61565592  0.97881573  0.65206825     0.01900
C634        C  0.61285498  0.01054139  0.65835330     0.01900
C635        C  0.62911785  0.03148885  0.64010748    -0.18600
C636        C  0.65078696  0.02116992  0.61843043     0.01900
C637        C  0.65525846  0.98938204  0.61386984     0.01900
C638        C  0.63674221  0.96851000  0.62976191    -0.18600
H639        H  0.63998160  0.94399925  0.62597587     0.03900
H640        H  0.62673081  0.05597866  0.64456718     0.03900
C641        C  0.63983819  0.61487842  0.96766059     0.01900
C642        C  0.64206107  0.61772042  0.00019731     0.01900
C643        C  0.62199311  0.63767508  0.01583408    -0.18600
C644        C  0.60179056  0.65687719  0.99966665     0.01900
C645        C  0.59896634  0.65373320  0.96734444     0.01900
C646        C  0.61720660  0.63187268  0.95183258    -0.18600
H647        H  0.61615555  0.63055515  0.92675150     0.03900
H648        H  0.62408422  0.64030194  0.04076620     0.03900
C649        C  0.35773807  0.99091695  0.65404177     0.01900
C650        C  0.35885837  0.02285759  0.64857731     0.01900
C651        C  0.33960403  0.03607632  0.62631427    -0.18600
C652        C  0.31805952  0.01858905  0.61005028     0.01900
C653        C  0.31675274  0.98647659  0.61490953     0.01900
C654        C  0.33710167  0.97295106  0.63652650    -0.18600
H655        H  0.33653039  0.94828861  0.64013632     0.03900
H656        H  0.34013173  0.06081343  0.62290907     0.03900
C657        C  0.00625094  0.37538725  0.64680240     0.01900
C658        C  0.97396380  0.37373783  0.65226006     0.01900
C659        C  0.95558282  0.35692378  0.63132671    -0.18600
C660        C  0.96913914  0.33900189  0.60782130     0.01900
C661        C  0.00159052  0.33948858  0.60394528     0.01900
C662        C  0.01948711  0.35866390  0.62252068    -0.18600
H663        H  0.04445113  0.35898117  0.61935762     0.03900
H664        H  0.93066693  0.35626179  0.63448519     0.03900
C665        C  0.29230445  0.64981897  0.97288702     0.01900
C666        C  0.29794759  0.64787052  0.00502128     0.01900
C667        C  0.32057689  0.66675882  0.01856022    -0.18600
C668        C  0.33798681  0.68702353  0.00026181     0.01900
C669        C  0.33255561  0.68847164  0.96806918     0.01900
C670        C  0.30963002  0.67005527  0.95473850    -0.18600
H671        H  0.30611881  0.67053454  0.92987533     0.03900
H672        H  0.32459212  0.66575205  0.04331397     0.03900
C673        C  0.67078110  0.35117461  0.96992455     0.01900
C674        C  0.66954315  0.35367917  0.00246407     0.01900
C675        C  0.64989847  0.33454762  0.01938802    -0.18600
C676        C  0.63109038  0.31320006  0.00406626     0.01900
C677        C  0.63245670  0.31075958  0.97152152     0.01900
C678        C  0.65230094  0.32963458  0.95468798    -0.18600
H679        H  0.65278014  0.32808900  0.92962367     0.03900
H680        H  0.64906225  0.33645150  0.04440964     0.03900
C681        C  0.60127777  0.02071458  0.32321811     0.01900
C682        C  0.59924512  0.98835217  0.32491824     0.01900
C683        C  0.61625142  0.97240753  0.34726352    -0.18600
C684        C  0.63743466  0.98741206  0.36626620     0.01900
C685        C  0.64060713  0.01959114  0.36414456     0.01900
C686        C  0.62178057  0.03611727  0.34329579    -0.18600
H687        H  0.62425427  0.06085306  0.34157839     0.03900
H688        H  0.61502200  0.94747520  0.34796095     0.03900
C689        C  0.95605275  0.66713755  0.36185930     0.01900
C690        C  0.98784239  0.67422963  0.35840926     0.01900
C691        C  0.00572111  0.65778780  0.33644377    -0.18600
C692        C  0.99206187  0.63584432  0.31677381     0.01900
C693        C  0.95994750  0.63058034  0.31933013     0.01900
C694        C  0.94283948  0.64514040  0.34253648    -0.18600
H695        H  0.91821698  0.64049147  0.34440296     0.03900
H696        H  0.03029367  0.66238846  0.33438766     0.03900
C697        C  0.00271363  0.35095235  0.30112030     0.01900
C698        C  0.97033618  0.35227573  0.29593256     0.01900
C699        C  0.95056872  0.33351073  0.31334596    -0.18600
C700        C  0.96271804  0.31265316  0.33490180     0.01900
C701        C  0.99506852  0.31039319  0.33876583     0.01900
C702        C  0.01463093  0.32991492  0.32252051    -0.18600
H703        H  0.03938047  0.32889490  0.32688396     0.03900
H704        H  0.92567923  0.33529473  0.31023082     0.03900
C705        C  0.34599561  0.98697703  0.30234296     0.01900
C706        C  0.34310273  0.01923713  0.30646529     0.01900
C707        C  0.32056207  0.03093387  0.32659216    -0.18600
C708        C  0.30066621  0.01146029  0.34251477     0.01900
C709        C  0.30342137  0.97940849  0.33899332     0.01900
C710        C  0.32600509  0.96735010  0.31882836    -0.18600
H711        H  0.32772830  0.94265110  0.31561233     0.03900
H712        H  0.31828468  0.05563290  0.32974963     0.03900
C713        C  0.36358846  0.34314477  0.99292609     0.01900
C714        C  0.36408875  0.34736603  0.96056539     0.01900
C715        C  0.34638669  0.37124289  0.94783687    -0.18600
C716        C  0.32546620  0.38820751  0.96598284     0.01900
C717        C  0.32484592  0.38369110  0.99833985     0.01900
C718        C  0.34481526  0.36195795  0.01142429    -0.18600
H719        H  0.34417948  0.35814610  0.03624773     0.03900
H720        H  0.34676694  0.37476535  0.92297807     0.03900
C721        C  0.81506550  0.79857681  0.30489849    -0.09500
C722        C  0.79238967  0.81371316  0.32290689     0.06700
C723        C  0.76327145  0.82005490  0.30891620    -0.03300
C724        C  0.75733733  0.81041746  0.27845875    -0.07700
C725        C  0.77947902  0.79399164  0.26095319     0.05800
C726        C  0.80901741  0.78881650  0.27442185    -0.02800
Br727      Br  0.84261593  0.76910057  0.25276112    -0.02500
H728        H  0.83761009  0.79359110  0.31483707     0.09700
H729        H  0.73448641  0.81471874  0.26892224     0.07700
Br730      Br  0.72902133  0.83912980  0.33030971    -0.02900
C731        C  0.80625922  0.79419893  0.66316122    -0.09500
C732        C  0.78320274  0.81057089  0.64681189     0.06700
C733        C  0.75561557  0.81859993  0.66288869    -0.03300
C734        C  0.75103389  0.80855293  0.69327777    -0.07700
C735        C  0.77335227  0.79082537  0.70912784     0.05800
C736        C  0.80185471  0.78471925  0.69393008    -0.02800
Br737      Br  0.83653068  0.76495863  0.71372045    -0.02500
H738        H  0.82806069  0.78864291  0.65196800     0.09700
H739        H  0.72919691  0.81426156  0.70431069     0.07700
Br740      Br  0.72219289  0.84252919  0.64548450    -0.02900
C741        C  0.66746301  0.92695344  0.42150331    -0.09500
C742        C  0.69652569  0.92048448  0.40837879     0.06700
C743        C  0.70729616  0.93865343  0.38375108    -0.03300
C744        C  0.68846495  0.96197744  0.37174688    -0.07700
C745        C  0.65891181  0.96767058  0.38401645     0.05800
C746        C  0.64841240  0.95002538  0.40913071    -0.02800
Br747      Br  0.60777891  0.95583898  0.42625927    -0.02500
H748        H  0.65930977  0.91356611  0.44092905     0.09700
H749        H  0.69644110  0.97492832  0.35195752     0.07700
Br750      Br  0.74796449  0.93327330  0.36643694    -0.02900
C751        C  0.92719491  0.71499328  0.37428046    -0.09500
C752        C  0.93430998  0.68447126  0.38195727     0.06700
C753        C  0.91593656  0.66923073  0.40409843    -0.03300
C754        C  0.89112514  0.68463882  0.41816875    -0.07700
C755        C  0.88343660  0.71484872  0.40979442     0.05800
C756        C  0.90198738  0.73022132  0.38789135    -0.02800
Br757      Br  0.89513689  0.77246089  0.37671245    -0.02500
H758        H  0.94061854  0.72666325  0.35675356     0.09700
H759        H  0.87751625  0.67284414  0.43546733     0.07700
Br760      Br  0.92302308  0.62703658  0.41524645    -0.02900
C761        C  0.91033446  0.70422094  0.55160846    -0.09500
C762        C  0.90913041  0.73510063  0.56145094     0.06700
C763        C  0.92958889  0.74491202  0.58492034    -0.03300
C764        C  0.94881441  0.72346164  0.59969896    -0.07700
C765        C  0.94837856  0.69224564  0.59124397     0.05800
C766        C  0.92953572  0.68282780  0.56637683    -0.02800
Br767      Br  0.92816502  0.64083585  0.55251439    -0.02500
H768        H  0.89505900  0.69623558  0.53338416     0.09700
H769        H  0.96315888  0.73099362  0.61883002     0.07700
Br770      Br  0.93262842  0.78715667  0.59752950    -0.02900
C771        C  0.70901570  0.97022492  0.60712221    -0.09500
C772        C  0.67997199  0.97694524  0.59399412     0.06700
C773        C  0.67352966  0.96783389  0.56350294    -0.03300
C774        C  0.69573304  0.95138129  0.54679206    -0.07700
C775        C  0.72404428  0.94280201  0.56048923     0.05800
C776        C  0.73107842  0.95310848  0.59059518    -0.02800
Br777      Br  0.77006838  0.94403589  0.61006583    -0.02500
H778        H  0.71393191  0.97705608  0.63076457     0.09700
H779        H  0.68979514  0.94314947  0.52382969     0.07700
Br780      Br  0.63359726  0.97435274  0.54499794    -0.02900
C781        C  0.78103597  0.23099965  0.29393447    -0.09500
C782        C  0.77186026  0.20874979  0.27215219     0.06700
C783        C  0.76802090  0.17803514  0.28173269    -0.03300
C784        C  0.77228058  0.17035091  0.31273780    -0.07700
C785        C  0.78107611  0.19265251  0.33440108     0.05800
C786        C  0.78582990  0.22316781  0.32485272    -0.02800
Br787      Br  0.79682434  0.25537638  0.35334511    -0.02500
H788        H  0.78348953  0.25481885  0.28717442     0.09700
H789        H  0.76945717  0.14664998  0.31985083     0.07700
Br790      Br  0.75896520  0.14511086  0.25361127    -0.02900
C791        C  0.69363521  0.04107590  0.36870996    -0.09500
C792        C  0.66457164  0.03591738  0.38217013     0.06700
C793        C  0.65900197  0.04581134  0.41268725    -0.03300
C794        C  0.68240561  0.06066854  0.42931905    -0.07700
C795        C  0.71138637  0.06637992  0.41575312     0.05800
C796        C  0.71702336  0.05613767  0.38523219    -0.02800
Br797      Br  0.75653650  0.06102300  0.36555372    -0.02500
H798        H  0.69814057  0.03326954  0.34527663     0.09700
H799        H  0.67748264  0.06894965  0.45251142     0.07700
Br800      Br  0.61931421  0.04093344  0.43190367    -0.02900
C801        C  0.90947761  0.24947646  0.36179774    -0.09500
C802        C  0.91143219  0.25278125  0.39427690     0.06700
C803        C  0.92828036  0.27796200  0.40651686    -0.03300
C804        C  0.94259774  0.29846993  0.38644042    -0.07700
C805        C  0.94193271  0.29399511  0.35433172     0.05800
C806        C  0.92439552  0.26984647  0.34191812    -0.02800
Br807      Br  0.92010116  0.26369127  0.29810769    -0.02500
H808        H  0.89599742  0.23111880  0.35158728     0.09700
H809        H  0.95516971  0.31775119  0.39603110     0.07700
Br810      Br  0.93363995  0.28641379  0.44998237    -0.02900
C811        C  0.70027963  0.04890440  0.61629045    -0.09500
C812        C  0.67083705  0.04395101  0.60373343     0.06700
C813        C  0.66064164  0.06143350  0.57835954    -0.03300
C814        C  0.68063037  0.08266425  0.56492639    -0.07700
C815        C  0.71047158  0.08724095  0.57705123     0.05800
C816        C  0.72018153  0.07030701  0.60317700    -0.02800
Br817      Br  0.76117323  0.07307352  0.62029618    -0.02500
H818        H  0.70793211  0.03573254  0.63616554     0.09700
H819        H  0.67300813  0.09539030  0.54474775     0.07700
Br820      Br  0.61988883  0.05682402  0.56124972    -0.02900
C821        C  0.94988511  0.28648622  0.59737215    -0.09500
C822        C  0.94931373  0.31777846  0.58995389     0.06700
C823        C  0.92934077  0.32831342  0.56643057    -0.03300
C824        C  0.91033877  0.30742020  0.55066692    -0.07700
C825        C  0.91100281  0.27595021  0.55806449     0.05800
C826        C  0.93173254  0.26547897  0.58114413    -0.02800
Br827      Br  0.93883259  0.22263316  0.58964177    -0.02500
H828        H  0.96472480  0.27823746  0.61579436     0.09700
H829        H  0.89492702  0.31579392  0.53270874     0.07700
Br830      Br  0.92747614  0.37089717  0.55510584    -0.02900
C831        C  0.81180218  0.33173731  0.19417207    -0.09500
C832        C  0.79707027  0.34425190  0.16808460     0.06700
C833        C  0.77683280  0.32565843  0.15065063    -0.03300
C834        C  0.76973678  0.29626934  0.16096705    -0.07700
C835        C  0.78219367  0.28450800  0.18866665     0.05800
C836        C  0.80479436  0.30216457  0.20457131    -0.02800
Br837      Br  0.82692498  0.28875401  0.24082677    -0.02500
H838        H  0.82810516  0.34546609  0.20729607     0.09700
H839        H  0.75344593  0.28294551  0.14744444     0.07700
Br840      Br  0.75818656  0.33841845  0.11226275    -0.02900
C841        C  0.78093234  0.65992225  0.16360078    -0.09500
C842        C  0.81288691  0.65689441  0.15799475     0.06700
C843        C  0.83211467  0.68235609  0.16427053    -0.03300
C844        C  0.81894138  0.71040168  0.17461649    -0.07700
C845        C  0.78679701  0.71329512  0.17982733     0.05800
C846        C  0.76810455  0.68724158  0.17529724    -0.02800
Br847      Br  0.72597610  0.68605367  0.18931519    -0.02500
H848        H  0.76598629  0.64018193  0.16067458     0.09700
H849        H  0.83385739  0.72992734  0.17880040     0.07700
Br850      Br  0.87617142  0.68010414  0.15869309    -0.02900
C851        C  0.73884726  0.38970605  0.04103170    -0.09500
C852        C  0.72854609  0.42017986  0.04526870     0.06700
C853        C  0.69832955  0.42845891  0.03573709    -0.03300
C854        C  0.67887175  0.40612951  0.02310271    -0.07700
C855        C  0.68937554  0.37583754  0.01885315     0.05800
C856        C  0.71956642  0.36763889  0.02783854    -0.02800
Br857      Br  0.73488509  0.32631996  0.02356065    -0.02500
H858        H  0.76174732  0.38283177  0.04883419     0.09700
H859        H  0.65550085  0.41244551  0.01631058     0.07700
Br860      Br  0.68139489  0.46900502  0.04143120    -0.02900
C861        C  0.94336812  0.38886400  0.22081865    -0.09500
C862        C  0.92608712  0.41406394  0.23204183     0.06700
C863        C  0.92436794  0.41910375  0.26435317    -0.03300
C864        C  0.93945174  0.39902678  0.28459272    -0.07700
C865        C  0.95639804  0.37379963  0.27338809     0.05800
C866        C  0.95855825  0.36882184  0.24122864    -0.02800
Br867      Br  0.97979802  0.33367877  0.22433839    -0.02500
H868        H  0.94419379  0.38418185  0.19617276     0.09700
H869        H  0.93735303  0.40266466  0.30934535     0.07700
Br870      Br  0.89858787  0.45041367  0.28273450    -0.02900
C871        C  0.68804948  0.62300598  0.03362696    -0.09500
C872        C  0.66680497  0.60351616  0.01886543     0.06700
C873        C  0.66630883  0.57222568  0.02645552    -0.03300
C874        C  0.68695068  0.56090175  0.04860941    -0.07700
C875        C  0.70854225  0.58026598  0.06337730     0.05800
C876        C  0.70914178  0.61173222  0.05534109    -0.02800
Br877      Br  0.73867688  0.64058560  0.07151037    -0.02500
H878        H  0.68790925  0.64737727  0.02845182     0.09700
H879        H  0.68601800  0.53673611  0.05436405     0.07700
Br880      Br  0.63674771  0.54454777  0.00863236    -0.02900
C881        C  0.90088441  0.60533618  0.26062254    -0.09500
C882        C  0.90770320  0.57384693  0.25781574     0.06700
C883        C  0.93266891  0.56117552  0.27503378    -0.03300
C884        C  0.94944021  0.57997169  0.29507265    -0.07700
C885        C  0.94272967  0.61140265  0.29731381     0.05800
C886        C  0.91829992  0.62415745  0.27978990    -0.02800
Br887      Br  0.90817700  0.66734633  0.28011770    -0.02500
H888        H  0.88213954  0.61564957  0.24744962     0.09700
H889        H  0.96794430  0.57004203  0.30883373     0.07700
Br890      Br  0.94709536  0.51941557  0.27111977    -0.02900
C891        C  0.05225019  0.30664865  0.54052235    -0.09500
C892        C  0.06097881  0.27830594  0.55367453     0.06700
C893        C  0.04703190  0.26916323  0.58170517    -0.03300
C894        C  0.02681819  0.28910603  0.59704935    -0.07700
C895        C  0.01856119  0.31747849  0.58420135     0.05800
C896        C  0.03117291  0.32621298  0.55561860    -0.02800
Br897      Br  0.02106027  0.36507529  0.53723311    -0.02500
H898        H  0.06220063  0.31382966  0.51872812     0.09700
H899        H  0.01792147  0.28263816  0.61952112     0.07700
Br900      Br  0.05245956  0.22904364  0.59931597    -0.02900
C901        C  0.25206817  0.07167680  0.59019031    -0.09500
C902        C  0.26209969  0.08382990  0.56190111     0.06700
C903        C  0.28906592  0.07157264  0.54791018    -0.03300
C904        C  0.30565071  0.04795774  0.56259270    -0.07700
C905        C  0.29572213  0.03612672  0.59105201     0.05800
C906        C  0.26860223  0.04810659  0.60475959    -0.02800
Br907      Br  0.25441436  0.03459404  0.64446416    -0.02500
H908        H  0.23110571  0.08043325  0.60098687     0.09700
H909        H  0.32729960  0.03992881  0.55263140     0.07700
Br910      Br  0.30602459  0.08828488  0.51057593    -0.02900
C911        C  0.28066115  0.02248123  0.39517977    -0.09500
C912        C  0.27730962  0.02542620  0.36309600     0.06700
C913        C  0.25258463  0.04271852  0.35097535    -0.03300
C914        C  0.23316910  0.05896910  0.37098276    -0.07700
C915        C  0.23786161  0.05819829  0.40322621     0.05800
C916        C  0.26087516  0.03823330  0.41539393    -0.02800
Br917      Br  0.26823547  0.03240049  0.45883367    -0.02500
H918        H  0.29943382  0.00868081  0.40452948     0.09700
H919        H  0.21507235  0.07331147  0.36111110     0.07700
Br920      Br  0.24495431  0.04541443  0.30726475    -0.02900
C921        C  0.01609820  0.29572924  0.38997083    -0.09500
C922        C  0.00925957  0.28746727  0.35943229     0.06700
C923        C  0.01730275  0.25808067  0.34845149    -0.03300
C924        C  0.03360657  0.23791596  0.36762143    -0.07700
C925        C  0.04189872  0.24653288  0.39797548     0.05800
C926        C  0.03143869  0.27530818  0.40963474    -0.02800
Br927      Br  0.03854198  0.28967409  0.45115885    -0.02500
H928        H  0.00993297  0.31847033  0.39839143     0.09700
H929        H  0.04103234  0.21593126  0.35820583     0.07700
Br930      Br  0.00853083  0.24551836  0.30673539    -0.02900
C931        C  0.19713036  0.17041641  0.30291009    -0.09500
C932        C  0.17428422  0.18642834  0.31988723     0.06700
C933        C  0.15742563  0.20993530  0.30451321    -0.03300
C934        C  0.16452372  0.21752140  0.27373515    -0.07700
C935        C  0.18824677  0.20231845  0.25706109     0.05800
C936        C  0.20410747  0.17776418  0.27209210    -0.02800
Br937      Br  0.23571121  0.15256444  0.25306441    -0.02500
H938        H  0.20997710  0.15184775  0.31375223     0.09700
H939        H  0.15163057  0.23614397  0.26307407     0.07700
Br940      Br  0.12537879  0.23404632  0.32406080    -0.02900
C941        C  0.26586551  0.17033050  0.16716544    -0.09500
C942        C  0.26021077  0.20228801  0.16777581     0.06700
C943        C  0.28340654  0.22194255  0.15612098    -0.03300
C944        C  0.31166755  0.20969885  0.14570210    -0.07700
C945        C  0.31802729  0.17797984  0.14685265     0.05800
C946        C  0.29427350  0.15813404  0.15660911    -0.02800
Br947      Br  0.29896913  0.11429463  0.15461167    -0.02500
H948        H  0.24820085  0.15473379  0.17528417     0.09700
H949        H  0.32966735  0.22545214  0.13864673     0.07700
Br950      Br  0.28023636  0.26595053  0.15730009    -0.02900
C951        C  0.65469041  0.17653265  0.17982777    -0.09500
C952        C  0.63304050  0.20074794  0.17819369     0.06700
C953        C  0.64338186  0.23139942  0.18129932    -0.03300
C954        C  0.67460663  0.23712239  0.18689674    -0.07700
C955        C  0.69600687  0.21290355  0.18942879     0.05800
C956        C  0.68608176  0.18245518  0.18506214    -0.02800
Br957      Br  0.71475609  0.14864376  0.18361631    -0.02500
H958        H  0.64730795  0.15301334  0.17623613     0.09700
H959        H  0.68201062  0.26064787  0.19049734     0.07700
Br960      Br  0.61607803  0.26656718  0.18021977    -0.02900
C961        C  0.40747653  0.32479054  0.02432636    -0.09500
C962        C  0.37983180  0.31802619  0.00883567     0.06700
C963        C  0.36436795  0.29037494  0.01505149    -0.03300
C964        C  0.37629451  0.27023148  0.03722095    -0.07700
C965        C  0.40365647  0.27725118  0.05325770     0.05800
C966        C  0.41963358  0.30456546  0.04627703    -0.02800
Br967      Br  0.45650713  0.31682521  0.06787523    -0.02500
H968        H  0.41878441  0.34661156  0.02041207     0.09700
H969        H  0.36417261  0.24901709  0.04194399     0.07700
Br970      Br  0.32592053  0.28026362  0.99522327    -0.02900
C971        C  0.40830168  0.07232521  0.28264252    -0.09500
C972        C  0.39339155  0.09093513  0.26037062     0.06700
C973        C  0.36154178  0.08574574  0.25431937    -0.03300
C974        C  0.34645668  0.06109367  0.26824264    -0.07700
C975        C  0.36176066  0.04201659  0.28944816     0.05800
C976        C  0.39257514  0.04855664  0.29759016    -0.02800
Br977      Br  0.41337348  0.02731073  0.33047265    -0.02500
H978        H  0.43238201  0.07614306  0.28853175     0.09700
H979        H  0.32214148  0.05732059  0.26325389     0.07700
Br980      Br  0.33611949  0.11187459  0.22895530    -0.02900
C981        C  0.54511155  0.07608036  0.28431621    -0.09500
C982        C  0.55478415  0.07449709  0.25324746     0.06700
C983        C  0.57920375  0.05417908  0.24526627    -0.03300
C984        C  0.59350324  0.03625749  0.26820107    -0.07700
C985        C  0.58431151  0.03856076  0.29929714     0.05800
C986        C  0.55992038  0.05875381  0.30729008    -0.02800
Br987      Br  0.54633329  0.06388732  0.34932593    -0.02500
H988        H  0.52667450  0.09180038  0.29102337     0.09700
H989        H  0.61233840  0.02087394  0.26184549     0.07700
Br990      Br  0.59355916  0.04937461  0.20349185    -0.02900
C991        C  0.55989784  0.28750161  0.04763178    -0.09500
C992        C  0.56436776  0.25550735  0.04793847     0.06700
C993        C  0.59166322  0.24278467  0.03539901    -0.03300
C994        C  0.61388165  0.26206159  0.02246326    -0.07700
C995        C  0.60925716  0.29404604  0.02176379     0.05800
C996        C  0.58225745  0.30683859  0.03498446    -0.02800
Br997      Br  0.57505475  0.35044202  0.03674077    -0.02500
H998        H  0.53948769  0.29755516  0.05836850     0.09700
H999        H  0.63468965  0.25205295  0.01252925     0.07700
Br1000     Br  0.59903517  0.19923076  0.03468879    -0.02900
C1001       C  0.13669042  0.31997908  0.16875511    -0.09500
C1002       C  0.15822733  0.34216245  0.15898755     0.06700
C1003       C  0.18991241  0.33374081  0.15823111    -0.03300
C1004       C  0.19918603  0.30381287  0.16539494    -0.07700
C1005       C  0.17805858  0.28167035  0.17539999     0.05800
C1006       C  0.14634998  0.29006074  0.17721521    -0.02800
Br1007     Br  0.11532902  0.26177792  0.19082919    -0.02500
H1008       H  0.11236791  0.32611477  0.17047139     0.09700
H1009       H  0.22366600  0.29854973  0.16530349     0.07700
Br1010     Br  0.22271887  0.36290963  0.15337182    -0.02900
C1011       C  0.01968409  0.40442572  0.29097237    -0.09500
C1012       C  0.02439219  0.37278044  0.28654787     0.06700
C1013       C  0.05053194  0.36253673  0.26985981    -0.03300
C1014       C  0.07129232  0.38391084  0.25800557    -0.07700
C1015       C  0.06636619  0.41581025  0.26169991     0.05800
C1016       C  0.03978965  0.42596254  0.27819989    -0.02800
Br1017     Br  0.02776669  0.46837608  0.28297777    -0.02500
H1018       H  0.00004253  0.41251562  0.30438255     0.09700
H1019       H  0.09106280  0.37532607  0.24507381     0.07700
Br1020     Br  0.05839110  0.31976652  0.26113448    -0.02900
C1021       C  0.28285394  0.44117930  0.04978241    -0.09500
C1022       C  0.26053470  0.42227701  0.06386789     0.06700
C1023       C  0.25930405  0.39088942  0.05531538    -0.03300
C1024       C  0.28021666  0.37920903  0.03362125    -0.07700
C1025       C  0.30186613  0.39822819  0.01913790     0.05800
C1026       C  0.30348135  0.42936447  0.02766987    -0.02800
Br1027     Br  0.33468589  0.45594762  0.01132917    -0.02500
H1028       H  0.28438020  0.46527672  0.05606381     0.09700
H1029       H  0.27948088  0.35495217  0.02779104     0.07700
Br1030     Br  0.22852685  0.36281402  0.07002331    -0.02900
C1031       C  0.24808618  0.63457569  0.03009076    -0.09500
C1032       C  0.27919177  0.62692112  0.02436990     0.06700
C1033       C  0.29063519  0.59803183  0.03389762    -0.03300
C1034       C  0.27068993  0.57699945  0.04802644    -0.07700
C1035       C  0.23953687  0.58469602  0.05389548     0.05800
C1036       C  0.22843539  0.61401548  0.04517138    -0.02800
Br1037     Br  0.18643680  0.62684018  0.05251437    -0.02500
H1038       H  0.23900100  0.65660164  0.02250830     0.09700
H1039       H  0.27984616  0.55496092  0.05549076     0.07700
Br1040     Br  0.33315067  0.58624074  0.02780106    -0.02900
C1041       C  0.02951352  0.59334180  0.30606336    -0.09500
C1042       C  0.01172613  0.61794487  0.29471376     0.06700
C1043       C  0.01251262  0.62439766  0.26278019    -0.03300
C1044       C  0.03130853  0.60665686  0.24293061    -0.07700
C1045       C  0.04917922  0.58190294  0.25422429     0.05800
C1046       C  0.04796469  0.57530078  0.28628201    -0.02800
Br1047     Br  0.07279280  0.54368040  0.30519578    -0.02500
H1048       H  0.02905198  0.58816289  0.33058048     0.09700
H1049       H  0.03211750  0.61237387  0.21855597     0.07700
Br1050     Br  0.98909247  0.65776106  0.24542098    -0.02900
C1051       C  0.16763162  0.70585824  0.19195592    -0.09500
C1052       C  0.19907631  0.71253955  0.19634453     0.06700
C1053       C  0.22145838  0.68896092  0.19444427    -0.03300
C1054       C  0.21204823  0.65907676  0.18841615    -0.07700
C1055       C  0.18060219  0.65219772  0.18406534     0.05800
C1056       C  0.15823393  0.67590513  0.18540228    -0.02800
Br1057     Br  0.11520694  0.66930041  0.17632649    -0.02500
H1058       H  0.15040022  0.72407668  0.19338530     0.09700
H1059       H  0.22945927  0.64099268  0.18739475     0.07700
Br1060     Br  0.26483392  0.69555202  0.20203835    -0.02900
C1061       C  0.15316884  0.78929379  0.31400457    -0.09500
C1062       C  0.17385890  0.80260033  0.33501754     0.06700
C1063       C  0.20354203  0.81152981  0.32490803    -0.03300
C1064       C  0.21204598  0.80669607  0.29414987    -0.07700
C1065       C  0.19159914  0.79272339  0.27319714     0.05800
C1066       C  0.16161014  0.78444309  0.28328082    -0.02800
Br1067     Br  0.13051335  0.76716649  0.25654121    -0.02500
H1068       H  0.13005725  0.78305911  0.32140546     0.09700
H1069       H  0.23535049  0.81251508  0.28704642     0.07700
Br1070     Br  0.23447997  0.82799042  0.35233197    -0.02900
C1071       C  0.01349154  0.72522125  0.36236031    -0.09500
C1072       C  0.00301317  0.69852022  0.37710230     0.06700
C1073       C  0.00909591  0.69452949  0.40884379    -0.03300
C1074       C  0.02512938  0.71713153  0.42535221    -0.07700
C1075       C  0.03654670  0.74343664  0.41052608     0.05800
C1076       C  0.03038006  0.74748171  0.37866176    -0.02800
Br1077     Br  0.04425781  0.78283606  0.35623467    -0.02500
H1078       H  0.00906365  0.72841763  0.33787681     0.09700
H1079       H  0.03041591  0.71313402  0.44954683     0.07700
Br1080     Br  0.99937744  0.65712763  0.42991288    -0.02900
C1081       C  0.27059447  0.92965191  0.40253855    -0.09500
C1082       C  0.23889924  0.92922834  0.39481611     0.06700
C1083       C  0.22908551  0.94386256  0.36728553    -0.03300
C1084       C  0.25076430  0.95854077  0.34840889    -0.07700
C1085       C  0.28232202  0.95894735  0.35630205     0.05800
C1086       C  0.29220030  0.94421141  0.38353272    -0.02800
Br1087     Br  0.33471411  0.94487435  0.39653287    -0.02500
H1088       H  0.27874704  0.91822527  0.42328745     0.09700
H1089       H  0.24283963  0.97064252  0.32795964     0.07700
Br1090     Br  0.18630830  0.94652075  0.35519370    -0.02900
C1091       C  0.04483752  0.71072180  0.55590907    -0.09500
C1092       C  0.05577854  0.73616893  0.57288063     0.06700
C1093       C  0.04733491  0.73923211  0.60438311    -0.03300
C1094       C  0.02832112  0.71727486  0.61798185    -0.07700
C1095       C  0.01702536  0.69240150  0.60078987     0.05800
C1096       C  0.02575947  0.68883536  0.56966169    -0.02800
Br1097     Br  0.01332737  0.65392798  0.54550043    -0.02500
H1098       H  0.05124585  0.70773085  0.53182727     0.09700
H1099       H  0.02168085  0.71994973  0.64204760     0.07700
Br1100     Br  0.05867624  0.77368236  0.62984942    -0.02900
C1101       C  0.25451849  0.92876787  0.59337119    -0.09500
C1102       C  0.25801408  0.92668205  0.56100466     0.06700
C1103       C  0.28134994  0.94463166  0.54674595    -0.03300
C1104       C  0.29964825  0.96427492  0.56474541    -0.07700
C1105       C  0.29568196  0.96646053  0.59685315     0.05800
C1106       C  0.27307727  0.94819823  0.61122126    -0.02800
Br1107     Br  0.26563619  0.94949530  0.65498209    -0.02500
H1108       H  0.23695966  0.91543696  0.60504528     0.09700
H1109       H  0.31743761  0.97776590  0.55360220     0.07700
Br1110     Br  0.28985359  0.94449208  0.50303026    -0.02900
C1111       C  0.31053738  0.79991043  0.15163507    -0.09500
C1112       C  0.33004562  0.81630502  0.17162420     0.06700
C1113       C  0.31862604  0.82591993  0.20075498    -0.03300
C1114       C  0.28888845  0.81722015  0.20997458    -0.07700
C1115       C  0.27011058  0.79900126  0.19070359     0.05800
C1116       C  0.28084599  0.79141884  0.16065233    -0.02800
Br1117     Br  0.25672896  0.76967992  0.13021727    -0.02500
H1118       H  0.31865141  0.79315709  0.12883789     0.09700
H1119       H  0.28116788  0.82339621  0.23304953     0.07700
Br1120     Br  0.34316306  0.84829203  0.23029565    -0.02900
C1121       C  0.65757842  0.79375683  0.14353471    -0.09500
C1122       C  0.64905036  0.82379756  0.15274664     0.06700
C1123       C  0.67127807  0.84108912  0.16918557    -0.03300
C1124       C  0.69891176  0.82714412  0.17956683    -0.07700
C1125       C  0.70636169  0.79623036  0.17257519     0.05800
C1126       C  0.68590183  0.78021096  0.15253364    -0.02800
Br1127     Br  0.69380975  0.73961954  0.13672072    -0.02500
H1128       H  0.64161210  0.78007202  0.12997489     0.09700
H1129       H  0.71482732  0.84083075  0.19317856     0.07700
Br1130     Br  0.66670241  0.88439597  0.17594069    -0.02900
C1131       C  0.35521772  0.73913598  0.01639026    -0.09500
C1132       C  0.36123610  0.70738894  0.01488898     0.06700
C1133       C  0.38983427  0.69590346  0.02572992    -0.03300
C1134       C  0.41144438  0.71603481  0.03879574    -0.07700
C1135       C  0.40473884  0.74757058  0.04176557     0.05800
C1136       C  0.37656567  0.75916745  0.02997408    -0.02800
Br1137     Br  0.36638628  0.80217221  0.03191448    -0.02500
H1138       H  0.33359495  0.74826931  0.00738354     0.09700
H1139       H  0.43286007  0.70677041  0.04816063     0.07700
Br1140     Br  0.40026043  0.65298268  0.02329231    -0.02900
C1141       C  0.36402958  0.97760047  0.24815742    -0.09500
C1142       C  0.36833369  0.97311172  0.28008104     0.06700
C1143       C  0.39217755  0.95319740  0.29014973    -0.03300
C1144       C  0.41093194  0.93801772  0.26850065    -0.07700
C1145       C  0.40567924  0.94118168  0.23656376     0.05800
C1146       C  0.38214527  0.96149880  0.22641634    -0.02800
Br1147     Br  0.37362498  0.96785546  0.18329804    -0.02500
H1148       H  0.34561956  0.99266776  0.24011602     0.09700
H1149       H  0.42851255  0.92210729  0.27676649     0.07700
Br1150     Br  0.39927517  0.94468815  0.33316930    -0.02900
C1151       C  0.55744822  0.67658883  0.02989586    -0.09500
C1152       C  0.58690578  0.68163049  0.01754024     0.06700
C1153       C  0.60446792  0.70686676  0.02784910    -0.03300
C1154       C  0.59228525  0.72680826  0.05013767    -0.07700
C1155       C  0.56277032  0.72184945  0.06263030     0.05800
C1156       C  0.54527799  0.69639896  0.05239689    -0.02800
Br1157     Br  0.50584096  0.68610252  0.07001384    -0.02500
H1158       H  0.54451320  0.65639513  0.02304534     0.09700
H1159       H  0.60577056  0.74650211  0.05740808     0.07700
Br1160     Br  0.64569109  0.71428828  0.01304959    -0.02900
C1161       C  0.54090498  0.94101670  0.28067835    -0.09500
C1162       C  0.56059536  0.92352041  0.26110126     0.06700
C1163       C  0.59273559  0.92937610  0.26200138    -0.03300
C1164       C  0.60417942  0.95239788  0.28132840    -0.07700
C1165       C  0.58451736  0.96933518  0.30086972     0.05800
C1166       C  0.55264238  0.96341024  0.30068953    -0.02800
Br1167     Br  0.52454659  0.98380693  0.32846589    -0.02500
H1168       H  0.51611605  0.93726094  0.28072429     0.09700
H1169       H  0.62897532  0.95621254  0.28225327     0.07700
Br1170     Br  0.62300553  0.90591655  0.23966334    -0.02900
C1171       C  0.17846791  0.83948192  0.68630383    -0.09500
C1172       C  0.17293682  0.80786349  0.69003862     0.06700
C1173       C  0.15314917  0.79298013  0.66866923    -0.03300
C1174       C  0.14044088  0.80943399  0.64391575    -0.07700
C1175       C  0.14727587  0.84062682  0.63917937     0.05800
C1176       C  0.16588753  0.85588894  0.66130224    -0.02800
Br1177     Br  0.17521378  0.89894797  0.65881497    -0.02500
H1178       H  0.19312766  0.85147687  0.70269854     0.09700
H1179       H  0.12685145  0.79698856  0.62697249     0.07700
Br1180     Br  0.14527613  0.74952893  0.66906878    -0.02900
C1181       C  0.31844031  0.77264492  0.76927302    -0.09500
C1182       C  0.32855573  0.80319578  0.77153179     0.06700
C1183       C  0.30762493  0.82714699  0.76352594    -0.03300
C1184       C  0.27728900  0.82005479  0.75422015    -0.07700
C1185       C  0.26708578  0.78946787  0.75298934     0.05800
C1186       C  0.28833542  0.76558853  0.76007791    -0.02800
Br1187     Br  0.27876952  0.72255572  0.75630840    -0.02500
H1188       H  0.33417842  0.75384617  0.77458127     0.09700
H1189       H  0.26128594  0.83862316  0.74889163     0.07700
Br1190     Br  0.31788961  0.86997412  0.76670858    -0.02900
C1191       C  0.65052520  0.78471982  0.82152514    -0.09500
C1192       C  0.64377053  0.81618879  0.81725061     0.06700
C1193       C  0.66721527  0.83505476  0.80499627    -0.03300
C1194       C  0.69531712  0.82204414  0.79500916    -0.07700
C1195       C  0.70121496  0.79027959  0.79728888     0.05800
C1196       C  0.67869281  0.77166169  0.81161820    -0.02800
Br1197     Br  0.68292120  0.72779473  0.81507884    -0.02500
H1198       H  0.63294232  0.76960195  0.83068410     0.09700
H1199       H  0.71257550  0.83691296  0.78486553     0.07700
Br1200     Br  0.66280448  0.87878863  0.80180067    -0.02900
C1201       C  0.38416806  0.69658884  0.94482764    -0.09500
C1202       C  0.35326657  0.70623519  0.94765553     0.06700
C1203       C  0.34295824  0.73226010  0.93123879    -0.03300
C1204       C  0.36366207  0.74815576  0.91227592    -0.07700
C1205       C  0.39482713  0.73872724  0.90972420     0.05800
C1206       C  0.40499244  0.71255554  0.92630523    -0.02800
Br1207     Br  0.44623424  0.69582154  0.92322787    -0.02500
H1208       H  0.39206986  0.67621286  0.95692300     0.09700
H1209       H  0.35543391  0.76810976  0.89966163     0.07700
Br1210     Br  0.30123140  0.74737065  0.93474288    -0.02900
C1211       C  0.40809218  0.96887039  0.67256982    -0.09500
C1212       C  0.37677256  0.97558474  0.67825140     0.06700
C1213       C  0.36299156  0.96432228  0.70537013    -0.03300
C1214       C  0.37976865  0.94508278  0.72520858    -0.07700
C1215       C  0.41057706  0.93631269  0.71869507     0.05800
C1216       C  0.42515076  0.94955910  0.69243802    -0.02800
Br1217     Br  0.46736492  0.94120517  0.68064757    -0.02500
H1218       H  0.41893948  0.97755396  0.65177992     0.09700
H1219       H  0.36805938  0.93602028  0.74534133     0.07700
Br1220     Br  0.32081220  0.97364368  0.71587921    -0.02900
C1221       C  0.60953065  0.95009363  0.70069594    -0.09500
C1222       C  0.59947356  0.95572278  0.67048099     0.06700
C1223       C  0.57478569  0.93885439  0.65796778    -0.03300
C1224       C  0.56046011  0.91647002  0.67586315    -0.07700
C1225       C  0.57018058  0.91090293  0.70639994     0.05800
C1226       C  0.59484451  0.92823648  0.71891330    -0.02800
Br1227     Br  0.60728669  0.92625189  0.76151140    -0.02500
H1228       H  0.62840655  0.96337461  0.71037508     0.09700
H1229       H  0.54106351  0.90397896  0.66616903     0.07700
Br1230     Br  0.55876986  0.94694520  0.61733081    -0.02900
C1231       C  0.59997109  0.70185594  0.93801450    -0.09500
C1232       C  0.58285622  0.67668076  0.94822647     0.06700
C1233       C  0.55299915  0.67163880  0.93638837    -0.03300
C1234       C  0.54074706  0.69175805  0.91424891    -0.07700
C1235       C  0.55814240  0.71675727  0.90341038     0.05800
C1236       C  0.58793724  0.72199178  0.91599600    -0.02800
Br1237     Br  0.61310150  0.75679730  0.90565732    -0.02500
H1238       H  0.62321542  0.70545139  0.94675434     0.09700
H1239       H  0.51773972  0.68760961  0.90516377     0.07700
Br1240     Br  0.52869782  0.63726486  0.94930173    -0.02900
C1241       C  0.19396691  0.18031072  0.64951562    -0.09500
C1242       C  0.16216671  0.18230727  0.64239618     0.06700
C1243       C  0.14192742  0.19359679  0.66562585    -0.03300
C1244       C  0.15373451  0.20335439  0.69447142    -0.07700
C1245       C  0.18569166  0.20212574  0.70113896     0.05800
C1246       C  0.20582193  0.19028159  0.67805876    -0.02800
Br1247     Br  0.25020218  0.19019867  0.68206727    -0.02500
H1248       H  0.21021143  0.17241869  0.63203674     0.09700
H1249       H  0.13775302  0.21198081  0.71184031     0.07700
Br1250     Br  0.09792731  0.19506091  0.66007987    -0.02900
C1251       C  0.18325321  0.32552174  0.82040852    -0.09500
C1252       C  0.16193940  0.34197633  0.80204082     0.06700
C1253       C  0.14943058  0.32665340  0.77577363    -0.03300
C1254       C  0.15988107  0.29707672  0.76752985    -0.07700
C1255       C  0.18270765  0.28133407  0.78470116     0.05800
C1256       C  0.19333254  0.29563040  0.81242721    -0.02800
Br1257     Br  0.22132823  0.27648230  0.84125734    -0.02500
H1258       H  0.19281930  0.33627265  0.84094154     0.09700
H1259       H  0.15062264  0.28681197  0.74662200     0.07700
Br1260     Br  0.11963030  0.34479949  0.74805641    -0.02900
C1261       C  0.17720637  0.68451399  0.80622181    -0.09500
C1262       C  0.16810037  0.66147536  0.78533928     0.06700
C1263       C  0.16272262  0.66929008  0.75406333    -0.03300
C1264       C  0.16797658  0.69935989  0.74401208    -0.07700
C1265       C  0.17855149  0.72199697  0.76460603     0.05800
C1266       C  0.18213714  0.71462940  0.79617263    -0.02800
Br1267     Br  0.19329390  0.74500233  0.82651397    -0.02500
H1268       H  0.18065699  0.67902673  0.83043954     0.09700
H1269       H  0.16570047  0.70451125  0.71961183     0.07700
Br1270     Br  0.15151974  0.63931848  0.72327892    -0.02900
C1271       C  0.05904277  0.39835129  0.71245581    -0.09500
C1272       C  0.07306449  0.42469899  0.70014916     0.06700
C1273       C  0.06482208  0.43459073  0.67018042    -0.03300
C1274       C  0.04216089  0.41872806  0.65365622    -0.07700
C1275       C  0.02767837  0.39294815  0.66639632     0.05800
C1276       C  0.03675611  0.38227475  0.69569691    -0.02800
Br1277     Br  0.02054466  0.34523078  0.71316911    -0.02500
H1278       H  0.06493007  0.39054212  0.73552243     0.09700
H1279       H  0.03608608  0.42621566  0.63051168     0.07700
Br1280     Br  0.08485273  0.46824619  0.64985182    -0.02900
C1281       C  0.31184949  0.43213480  0.93239820    -0.09500
C1282       C  0.30207384  0.40624398  0.94898237     0.06700
C1283       C  0.27291362  0.39334843  0.94240716    -0.03300
C1284       C  0.25427978  0.40619629  0.91941316    -0.07700
C1285       C  0.26434710  0.43157222  0.90239894     0.05800
C1286       C  0.29317852  0.44490231  0.90923270    -0.02800
Br1287     Br  0.30934442  0.47825303  0.88534827    -0.02500
H1288       H  0.33483249  0.44128726  0.93626520     0.09700
H1289       H  0.23190043  0.39607935  0.91452435     0.07700
Br1290     Br  0.25870274  0.35625181  0.96146326    -0.02900
C1291       C  0.03663565  0.61206684  0.72932803    -0.09500
C1292       C  0.04238435  0.58038164  0.72495637     0.06700
C1293       C  0.02730311  0.56520729  0.70001647    -0.03300
C1294       C  0.00973658  0.58228162  0.67881797    -0.07700
C1295       C  0.00653918  0.61417521  0.68201609     0.05800
C1296       C  0.01902911  0.62890576  0.70815383    -0.02800
Br1297     Br  0.01301794  0.67212479  0.71563459    -0.02500
H1298       H  0.04699145  0.62430505  0.74858015     0.09700
H1299       H  0.99937130  0.57077607  0.65909471     0.07700
Br1300     Br  0.02994398  0.52172474  0.69232389    -0.02900
C1301       C  0.27770698  0.59729994  0.95623082    -0.09500
C1302       C  0.27050230  0.62873209  0.95728163     0.06700
C1303       C  0.24361077  0.63958861  0.94241072    -0.03300
C1304       C  0.22546658  0.61925380  0.92512128    -0.07700
C1305       C  0.23338076  0.58784855  0.92285966     0.05800
C1306       C  0.25925497  0.57674032  0.93971416    -0.02800
Br1307     Br  0.27274111  0.53453799  0.93938685    -0.02500
H1308       H  0.29848535  0.58882750  0.96747910     0.09700
H1309       H  0.20550027  0.62819088  0.91275121     0.07700
Br1310     Br  0.23097958  0.68192235  0.94499161    -0.02900
C1311       C  0.30716491  0.16274613  0.78754551    -0.09500
C1312       C  0.32574704  0.18325294  0.80467314     0.06700
C1313       C  0.31208987  0.21158037  0.81402697    -0.03300
C1314       C  0.28231374  0.21973367  0.80397593    -0.07700
C1315       C  0.26458417  0.20026947  0.78504469     0.05800
C1316       C  0.27690827  0.17071490  0.77810666    -0.02800
Br1317     Br  0.25379186  0.13958475  0.75670443    -0.02500
H1318       H  0.31644448  0.14051781  0.78070829     0.09700
H1319       H  0.27354971  0.24230133  0.81017837     0.07700
Br1320     Br  0.33241325  0.24177415  0.83914303    -0.02900
C1321       C  0.37898238  0.08458761  0.70610174    -0.09500
C1322       C  0.40999676  0.09063617  0.69854893     0.06700
C1323       C  0.42376873  0.07455942  0.67339824    -0.03300
C1324       C  0.40736617  0.05114329  0.65850522    -0.07700
C1325       C  0.37708947  0.04418155  0.66748458     0.05800
C1326       C  0.36244682  0.06197468  0.69051403    -0.02800
Br1327     Br  0.31953524  0.05704763  0.70086673    -0.02500
H1328       H  0.36756872  0.09696017  0.72474579     0.09700
H1329       H  0.41785365  0.03900526  0.63916524     0.07700
Br1330     Br  0.46366093  0.08463417  0.65659628    -0.02900
C1331       C  0.38115018  0.29228347  0.89444999    -0.09500
C1332       C  0.41316715  0.28711716  0.89755165     0.06700
C1333       C  0.42907143  0.30262963  0.92178378    -0.03300
C1334       C  0.41276176  0.32214346  0.94197401    -0.07700
C1335       C  0.38066836  0.32619866  0.93920762     0.05800
C1336       C  0.36482885  0.31096630  0.91511122    -0.02800
Br1337     Br  0.32053706  0.31288779  0.91021074    -0.02500
H1338       H  0.36825724  0.28081044  0.87646744     0.09700
H1339       H  0.42525768  0.33427755  0.95997276     0.07700
Br1340     Br  0.47273980  0.29880258  0.92944382    -0.02900
C1341       C  0.59664515  0.05476588  0.73156754    -0.09500
C1342       C  0.56406671  0.05558378  0.73188729     0.06700
C1343       C  0.54772552  0.03639332  0.71099083    -0.03300
C1344       C  0.56396166  0.02038166  0.68783331    -0.07700
C1345       C  0.59627633  0.02260027  0.68573078     0.05800
C1346       C  0.61271436  0.03850180  0.70885655    -0.02800
Br1347     Br  0.65725087  0.03998710  0.70966005    -0.02500
H1348       H  0.60991211  0.06844265  0.74780246     0.09700
H1349       H  0.55127236  0.00717812  0.67074897     0.07700
Br1350     Br  0.50363143  0.03084104  0.71270352    -0.02900
C1351       C  0.56158885  0.28080725  0.93078964    -0.09500
C1352       C  0.57073990  0.25060482  0.92361548     0.06700
C1353       C  0.60032417  0.24002739  0.93273307    -0.03300
C1354       C  0.62045312  0.26000724  0.94806712    -0.07700
C1355       C  0.61131912  0.29034205  0.95460506     0.05800
C1356       C  0.58168968  0.30073560  0.94595372    -0.02800
Br1357     Br  0.56849852  0.34249308  0.95248707    -0.02500
H1358       H  0.53948173  0.28957998  0.92281061     0.09700
H1359       H  0.64324282  0.25191075  0.95494338     0.07700
Br1360     Br  0.61407026  0.19859043  0.92514220    -0.02900
C1361       C  0.82385455  0.20270858  0.68929499    -0.09500
C1362       C  0.79701491  0.18825489  0.70051566     0.06700
C1363       C  0.78634584  0.16177851  0.68449103    -0.03300
C1364       C  0.80062152  0.15259685  0.65682882    -0.07700
C1365       C  0.82535452  0.16910260  0.64396889     0.05800
C1366       C  0.83793380  0.19363315  0.66149288    -0.02800
Br1367     Br  0.87292251  0.21753797  0.64862810    -0.02500
H1368       H  0.83339959  0.22229019  0.70149764     0.09700
H1369       H  0.79088582  0.13332369  0.64431351     0.07700
Br1370     Br  0.75135904  0.13753421  0.69678941    -0.02900
C1371       C  0.68749291  0.17939653  0.75321919    -0.09500
C1372       C  0.70893635  0.19148958  0.77443248     0.06700
C1373       C  0.69974855  0.19591068  0.80549971    -0.03300
C1374       C  0.66914460  0.19028406  0.81429153    -0.07700
C1375       C  0.64725815  0.17973407  0.79276004     0.05800
C1376       C  0.65684359  0.17356324  0.76207220    -0.02800
Br1377     Br  0.62844605  0.16057805  0.73039383    -0.02500
H1378       H  0.69399890  0.17630689  0.72918176     0.09700
H1379       H  0.66230002  0.19453021  0.83807292     0.07700
Br1380     Br  0.72804779  0.20934284  0.83706532    -0.02900
C1381       C  0.76347741  0.32899400  0.78840924    -0.09500
C1382       C  0.79415904  0.33955061  0.78749545     0.06700
C1383       C  0.81746612  0.31930799  0.77610572    -0.03300
C1384       C  0.80971793  0.28929396  0.76685911    -0.07700
C1385       C  0.77903918  0.27874949  0.76841291     0.05800
C1386       C  0.75567914  0.29938946  0.77873689    -0.02800
Br1387     Br  0.71208159  0.29025003  0.77814600    -0.02500
H1388       H  0.74498509  0.34416902  0.79612881     0.09700
H1389       H  0.82792644  0.27396315  0.75877640     0.07700
Br1390     Br  0.86041062  0.33028253  0.77323715    -0.02900
C1391       C  0.79639332  0.67417661  0.83234310    -0.09500
C1392       C  0.81345755  0.65597313  0.81136435     0.06700
C1393       C  0.81953898  0.66822999  0.78161579    -0.03300
C1394       C  0.80681104  0.69665604  0.77297290    -0.07700
C1395       C  0.78789791  0.71395731  0.79315050     0.05800
C1396       C  0.78408620  0.70297221  0.82380166    -0.02800
Br1397     Br  0.76309770  0.72590078  0.85569668    -0.02500
H1398       H  0.79188049  0.66559082  0.85540535     0.09700
H1399       H  0.81064105  0.70446982  0.74952412     0.07700
Br1400     Br  0.84198541  0.64644632  0.74979847    -0.02900
C1401       C  0.92372515  0.38514823  0.72370414    -0.09500
C1402       C  0.92630123  0.41693878  0.72903324     0.06700
C1403       C  0.94783428  0.43372235  0.71124349    -0.03300
C1404       C  0.96335634  0.41937402  0.68656694    -0.07700
C1405       C  0.95900667  0.38802913  0.67993617     0.05800
C1406       C  0.93991804  0.37063867  0.69973490    -0.02800
Br1407     Br  0.93502825  0.32684793  0.69564002    -0.02500
H1408       H  0.90798407  0.37152335  0.73740375     0.09700
H1409       H  0.97838095  0.43301706  0.67210507     0.07700
Br1410     Br  0.95776929  0.47594746  0.71971504    -0.02900
C1411       C  0.73664951  0.38163020  0.92148265    -0.09500
C1412       C  0.72941024  0.41323851  0.92061965     0.06700
C1413       C  0.70240869  0.42398377  0.93581412    -0.03300
C1414       C  0.68299549  0.40310384  0.95043534    -0.07700
C1415       C  0.69058552  0.37177744  0.95165906     0.05800
C1416       C  0.71754107  0.36095366  0.93689764    -0.02800
Br1417     Br  0.72891981  0.31820710  0.93673179    -0.02500
H1418       H  0.75703180  0.37285190  0.90965548     0.09700
H1419       H  0.66176829  0.41138574  0.96102680     0.07700
Br1420     Br  0.68936698  0.46628567  0.93640251    -0.02900
C1421       C  0.71206423  0.60006368  0.92065372    -0.09500
C1422       C  0.70398853  0.57331477  0.90439438     0.06700
C1423       C  0.67495887  0.55974641  0.90977426    -0.03300
C1424       C  0.65492033  0.57254769  0.93187985    -0.07700
C1425       C  0.66335730  0.59892420  0.94864092     0.05800
C1426       C  0.69188181  0.61312556  0.94232405    -0.02800
Br1427     Br  0.70313127  0.65189127  0.96037962    -0.02500
H1428       H  0.73419520  0.61090427  0.91643324     0.09700
H1429       H  0.63222125  0.56259324  0.93521420     0.07700
Br1430     Br  0.66042072  0.52594547  0.88519633    -0.02900
C1431       C  0.90339996  0.56964611  0.67859891    -0.09500
C1432       C  0.90170870  0.57645211  0.71031932     0.06700
C1433       C  0.91940190  0.60085391  0.72254946    -0.03300
C1434       C  0.93712308  0.61881373  0.70280711    -0.07700
C1435       C  0.93887918  0.61202162  0.67113652     0.05800
C1436       C  0.92196916  0.58715652  0.65900258    -0.02800
Br1437     Br  0.92489775  0.57521032  0.61632250    -0.02500
H1438       H  0.89049150  0.55050643  0.66910923     0.09700
H1439       H  0.95031766  0.63769770  0.71236940     0.07700
Br1440     Br  0.92325093  0.60871874  0.76624799    -0.02900
loop_ 
_geom_bond_atom_site_label_1 
_geom_bond_atom_site_label_2 
_geom_bond_distance 
_geom_bond_site_symmetry_2 
_ccdc_geom_bond_type 
O1           Mg3   2.156       .  S
O1           Mg9   2.150       .  S
O1           C36   1.235       .  S
C2           O15   1.237       .  S
C2           O39   1.273       .  A
C2           H41   1.080       .  S
Mg3          O32   2.155       .  S
Mg3          O47   2.320       .  S
Mg3          O43   2.264       .  S
Mg3          O14   2.293       .  S
O4          Mg46   2.149       .  S
O4          Mg29   2.122       .  S
O4           C25   1.234       .  S
O5           C36   1.271       .  A
O5          Mg29   2.312       .  S
C6            O8   1.271       .  A
C6           O20   1.271       .  A
C6         C1412   1.475       .  S
O7           C35   1.269       .  A
O7           Mg9   2.301       .  S
O8          Mg40   2.261       .  S
Mg9          O15   2.172       .  S
Mg9          O23   2.265       .  S
Mg9          O11   2.269       .  S
C10          O48   1.273       .  A
C10          O16   1.274       .  A
C10        C1382   1.493       .  S
O11          C18   1.268       .  A
H12          C25   1.081       .  S
C13          O27   1.237       .  S
C13          O28   1.270       .  A
C13          H38   1.081       .  S
O14          C37   1.267       .  A
O15         Mg29   2.167       .  S
O16         Mg46   2.317       .  S
C17          O30   1.271       .  A
C17          O22   1.273       .  A
C17        C1402   1.486       .  S
C18          O45   1.267       .  A
C18        C1432   1.467       .  S
Mg19         O26   2.139       .  S
Mg19         O27   2.152       .  S
Mg19         O20   2.265       .  S
Mg19         O21   2.285       .  S
Mg19         O48   2.262       .  S
O21          C25   1.267       .  A
O22         Mg29   2.299       .  S
O23          C42   1.269       .  A
O24          C44   1.274       .  A
O24         Mg40   2.299       .  S
O26         Mg40   2.147       .  S
O26          C37   1.233       .  S
O27         Mg46   2.126       .  S
O28         Mg40   2.292       .  S
Mg29         O45   2.241       .  S
O30         Mg46   2.250       .  S
H31          C36   1.081       .  S
O32         Mg40   2.147       .  S
O32          C35   1.234       .  S
H33          C35   1.081       .  S
H34          C37   1.081       .  S
O39         Mg46   2.316       .  S
C42          O47   1.276       .  A
C42        C1392   1.495       .  S
O43          C44   1.273       .  A
C44        C1422   1.471       .  S
C49        C1385   1.487       .  S
C49          N50   1.360       .  A
C49          N54   1.352       .  A
N50          C51   1.366       .  A
C51        C1362   1.499       .  S
C51          N52   1.362       .  A
N52          C53   1.359       .  A
C53        C1372   1.480       .  S
C53          N54   1.352       .  A
O55         Mg57   2.109       .  S
O55         Mg63   2.142       .  S
O55          C90   1.235       .  S
C56          O69   1.234       .  S
C56          O93   1.268       .  A
C56          H95   1.081       .  S
Mg57         O86   2.145       .  S
Mg57        O101   2.306       .  S
Mg57         O97   2.229       .  S
Mg57         O68   2.314       .  S
O58        Mg100   2.160       .  S
O58         Mg83   2.156       .  S
O58          C79   1.235       .  S
O59          C90   1.268       .  A
O59         Mg83   2.285       .  S
C60          O62   1.263       .  A
C60          O74   1.275       .  A
C60        C1322   1.478       .  S
O61          C89   1.268       .  A
O61         Mg63   2.288       .  S
O62         Mg94   2.213       .  S
Mg63         O69   2.136       .  S
Mg63         O77   2.267       .  S
Mg63         O65   2.270       .  S
C64         O102   1.274       .  A
C64          O70   1.275       .  A
C64        C1312   1.504       .  S
O65          C72   1.271       .  A
H66          C79   1.081       .  S
C67          O81   1.235       .  S
C67          O82   1.271       .  A
C67          H92   1.081       .  S
O68          C91   1.273       .  A
O69         Mg83   2.152       .  S
O70        Mg100   2.319       .  S
C71          O84   1.275       .  A
C71          O76   1.270       .  A
C71        C1332   1.491       .  S
C72          O99   1.273       .  A
C72        C1352   1.466       .  S
Mg73         O80   2.170       .  S
Mg73         O81   2.145       .  S
Mg73         O74   2.303       .  S
Mg73         O75   2.307       .  S
Mg73        O102   2.290       .  S
O75          C79   1.270       .  A
O76         Mg83   2.284       .  S
O77          C96   1.273       .  A
O78          C98   1.271       .  A
O78         Mg94   2.296       .  S
O80         Mg94   2.159       .  S
O80          C91   1.238       .  S
O81        Mg100   2.152       .  S
O82         Mg94   2.310       .  S
Mg83         O99   2.262       .  S
O84        Mg100   2.271       .  S
H85          C90   1.081       .  S
O86         Mg94   2.119       .  S
O86          C89   1.235       .  S
H87          C89   1.081       .  S
H88          C91   1.081       .  S
O93        Mg100   2.290       .  S
C96         O101   1.274       .  A
C96        C1375   1.479       .  S
O97          C98   1.268       .  A
C98        C1342   1.483       .  S
O103       Mg105   2.153       .  S
O103       Mg111   2.156       .  S
O103        C138   1.235       .  S
C104        O117   1.237       .  S
C104        O141   1.273       .  A
C104        H143   1.081       .  S
Mg105       O134   2.158       .  S
Mg105       O149   2.346       .  S
Mg105       O145   2.264       .  S
Mg105       O116   2.299       .  S
O106       Mg148   2.146       .  S
O106       Mg131   2.121       .  S
O106        C127   1.235       .  S
O107        C138   1.271       .  A
O107       Mg131   2.313       .  S
C108        O110   1.271       .  A
C108        O122   1.274       .  A
C108       C1305   1.480       .  S
O109        C137   1.267       .  A
O109       Mg111   2.299       .  S
O110       Mg142   2.265       .  S
Mg111       O117   2.173       .  S
Mg111       O125   2.268       .  S
Mg111       O113   2.281       .  S
C112        O150   1.274       .  A
C112        O118   1.273       .  A
C112       C1262   1.477       .  S
O113        C120   1.271       .  A
H114        C127   1.081       .  S
C115        O129   1.236       .  S
C115        O130   1.268       .  A
C115        H140   1.081       .  S
O116        C139   1.268       .  A
O117       Mg131   2.161       .  S
O118       Mg148   2.291       .  S
C119        O132   1.268       .  A
C119        O124   1.271       .  A
C119       C1292   1.490       .  S
C120        O147   1.264       .  A
C120       C1272   1.469       .  S
Mg121       O128   2.140       .  S
Mg121       O129   2.151       .  S
Mg121       O122   2.284       .  S
Mg121       O123   2.292       .  S
Mg121       O150   2.277       .  S
O123        C127   1.268       .  A
O124       Mg131   2.303       .  S
O125        C144   1.270       .  A
O126        C146   1.271       .  A
O126       Mg142   2.277       .  S
O128       Mg142   2.148       .  S
O128        C139   1.234       .  S
O129       Mg148   2.112       .  S
O130       Mg142   2.282       .  S
Mg131       O147   2.221       .  S
O132       Mg148   2.237       .  S
H133        C138   1.081       .  S
O134       Mg142   2.162       .  S
O134        C137   1.233       .  S
H135        C137   1.081       .  S
H136        C139   1.081       .  S
O141       Mg148   2.314       .  S
C144        O149   1.280       .  A
C144       C1252   1.506       .  S
O145        C146   1.274       .  A
C146       C1285   1.464       .  S
C151       C1245   1.499       .  S
C151        N152   1.365       .  A
C151        N156   1.362       .  A
N152        C153   1.367       .  A
C153       C1255   1.512       .  S
C153        N154   1.360       .  A
N154        C155   1.363       .  A
C155       C1315   1.502       .  S
C155        N156   1.360       .  A
O157       Mg159   2.131       .  S
O157       Mg165   2.153       .  S
O157        C192   1.234       .  S
C158        O171   1.235       .  S
C158        O195   1.269       .  A
C158        H197   1.081       .  S
Mg159       O188   2.146       .  S
Mg159       O203   2.316       .  S
Mg159       O199   2.267       .  S
Mg159       O170   2.317       .  S
O160       Mg202   2.147       .  S
O160       Mg185   2.146       .  S
O160        C181   1.235       .  S
O161        C192   1.267       .  A
O161       Mg185   2.286       .  S
C162        O164   1.266       .  A
C162        O176   1.271       .  A
C162       C1225   1.469       .  S
O163        C191   1.269       .  A
O163       Mg165   2.291       .  S
O164       Mg196   2.215       .  S
Mg165       O171   2.140       .  S
Mg165       O179   2.254       .  S
Mg165       O167   2.300       .  S
C166        O204   1.272       .  A
C166        O172   1.272       .  A
C166       C1192   1.494       .  S
O167        C174   1.275       .  A
H168        C181   1.081       .  S
C169        O183   1.235       .  S
C169        O184   1.271       .  A
C169        H194   1.081       .  S
O170        C193   1.273       .  A
O171       Mg185   2.154       .  S
O172       Mg202   2.299       .  S
C173        O186   1.270       .  A
C173        O178   1.273       .  A
C173       C1235   1.475       .  S
C174        O201   1.271       .  A
C174       C1205   1.478       .  S
Mg175       O182   2.182       .  S
Mg175       O183   2.143       .  S
Mg175       O176   2.291       .  S
Mg175       O177   2.312       .  S
Mg175       O204   2.294       .  S
O177        C181   1.271       .  A
O178       Mg185   2.292       .  S
O179        C198   1.273       .  A
O180        C200   1.273       .  A
O180       Mg196   2.318       .  S
O182       Mg196   2.170       .  S
O182        C193   1.237       .  S
O183       Mg202   2.155       .  S
O184       Mg196   2.313       .  S
Mg185       O201   2.257       .  S
O186       Mg202   2.245       .  S
H187        C192   1.081       .  S
O188       Mg196   2.126       .  S
O188        C191   1.236       .  S
H189        C191   1.081       .  S
H190        C193   1.081       .  S
O195       Mg202   2.292       .  S
C198        O203   1.275       .  A
C198       C1182   1.487       .  S
O199        C200   1.273       .  A
C200       C1215   1.498       .  S
C205       C1185   1.482       .  S
C205        N206   1.353       .  A
C205        N210   1.361       .  A
N206        C207   1.352       .  A
C207       C1265   1.475       .  S
C207        N208   1.358       .  A
N208        C209   1.362       .  A
C209       C1172   1.488       .  S
C209        N210   1.365       .  A
O211       Mg213   2.162       .  S
O211       Mg219   2.147       .  S
O211        C246   1.233       .  S
C212        O225   1.238       .  S
C212        O249   1.274       .  A
C212        H251   1.081       .  S
Mg213       O242   2.156       .  S
Mg213       O257   2.312       .  S
Mg213       O253   2.267       .  S
Mg213       O224   2.294       .  S
O214       Mg256   2.149       .  S
O214       Mg239   2.116       .  S
O214        C235   1.234       .  S
O215        C246   1.268       .  A
O215       Mg239   2.303       .  S
C216        O218   1.272       .  A
C216        O230   1.271       .  A
C216       C1135   1.472       .  S
O217        C245   1.271       .  A
O217       Mg219   2.318       .  S
O218       Mg250   2.284       .  S
Mg219       O225   2.195       .  S
Mg219       O233   2.332       .  S
Mg219       O221   2.329       .  S
C220        O258   1.270       .  A
C220        O226   1.272       .  A
C220       C1112   1.475       .  S
O221        C228   1.278       .  A
H222        C235   1.081       .  S
C223        O237   1.235       .  S
C223        O238   1.268       .  A
C223        H248   1.081       .  S
O224        C247   1.269       .  A
O225       Mg239   2.185       .  S
O226       Mg256   2.293       .  S
C227        O240   1.267       .  A
C227        O232   1.273       .  A
C227       C1145   1.481       .  S
C228        O255   1.264       .  A
C228       C1162   1.488       .  S
Mg229       O236   2.125       .  S
Mg229       O237   2.153       .  S
Mg229       O230   2.279       .  S
Mg229       O231   2.285       .  S
Mg229       O258   2.236       .  S
O231        C235   1.267       .  A
O232       Mg239   2.305       .  S
O233        C252   1.278       .  A
O234        C254   1.268       .  A
O234       Mg250   2.251       .  S
O236       Mg250   2.141       .  S
O236        C247   1.236       .  S
O237       Mg256   2.120       .  S
O238       Mg250   2.289       .  S
Mg239       O255   2.197       .  S
O240       Mg256   2.252       .  S
H241        C246   1.081       .  S
O242       Mg250   2.165       .  S
O242        C245   1.234       .  S
H243        C245   1.081       .  S
H244        C247   1.081       .  S
O249       Mg256   2.318       .  S
C252        O257   1.275       .  A
C252       C1122   1.507       .  S
O253        C254   1.273       .  A
C254       C1155   1.468       .  S
O259       Mg261   2.136       .  S
O259       Mg267   2.161       .  S
O259        C294   1.233       .  S
C260        O273   1.236       .  S
C260        O297   1.270       .  A
C260        H299   1.081       .  S
Mg261       O290   2.153       .  S
Mg261       O305   2.243       .  S
Mg261       O301   2.248       .  S
Mg261       O272   2.298       .  S
O262       Mg304   2.149       .  S
O262       Mg287   2.151       .  S
O262        C283   1.238       .  S
O263        C294   1.267       .  A
O263       Mg287   2.291       .  S
C264        O266   1.269       .  A
C264        O278   1.277       .  A
C264       C1102   1.491       .  S
O265        C293   1.270       .  A
O265       Mg267   2.296       .  S
O266       Mg298   2.248       .  S
Mg267       O273   2.120       .  S
Mg267       O281   2.246       .  S
Mg267       O269   2.313       .  S
C268        O306   1.268       .  A
C268        O274   1.269       .  A
C268       C1175   1.488       .  S
O269        C276   1.276       .  A
H270        C283   1.081       .  S
C271        O285   1.232       .  S
C271        O286   1.267       .  A
C271        H296   1.081       .  S
O272        C295   1.270       .  A
O273       Mg287   2.146       .  S
O274       Mg304   2.274       .  S
C275        O288   1.271       .  A
C275        O280   1.273       .  A
C275       C1092   1.480       .  S
C276        O303   1.274       .  A
C276       C1075   1.482       .  S
Mg277       O284   2.155       .  S
Mg277       O285   2.151       .  S
Mg277       O278   2.310       .  S
Mg277       O279   2.327       .  S
Mg277       O306   2.283       .  S
O279        C283   1.275       .  A
O280       Mg287   2.283       .  S
O281        C300   1.270       .  A
O282        C302   1.275       .  A
O282       Mg298   2.310       .  S
O284       Mg298   2.185       .  S
O284        C295   1.236       .  S
O285       Mg304   2.164       .  S
O286       Mg298   2.301       .  S
Mg287       O303   2.273       .  S
O288       Mg304   2.262       .  S
H289        C294   1.081       .  S
O290       Mg298   2.133       .  S
O290        C293   1.236       .  S
H291        C293   1.081       .  S
H292        C295   1.081       .  S
O297       Mg304   2.292       .  S
C300        O305   1.266       .  A
C300       C1062   1.463       .  S
O301        C302   1.267       .  A
C302       C1082   1.484       .  S
C307       C1115   1.480       .  S
C307        N308   1.354       .  A
C307        N312   1.362       .  A
N308        C309   1.350       .  A
C309       C1052   1.454       .  S
C309        N310   1.345       .  A
N310        C311   1.350       .  A
C311       C1065   1.470       .  S
C311        N312   1.362       .  A
O313       Mg315   2.151       .  S
O313       Mg321   2.152       .  S
O313        C348   1.235       .  S
C314        O327   1.232       .  S
C314        O351   1.265       .  A
C314        H353   1.081       .  S
Mg315       O344   2.164       .  S
Mg315       O359   2.295       .  S
Mg315       O355   2.275       .  S
Mg315       O326   2.312       .  S
O316       Mg358   2.167       .  S
O316       Mg341   2.161       .  S
O316        C337   1.237       .  S
O317        C348   1.269       .  A
O317       Mg341   2.299       .  S
C318        O320   1.268       .  A
C318        O332   1.270       .  A
C318       C1015   1.486       .  S
O319        C347   1.271       .  A
O319       Mg321   2.294       .  S
O320       Mg352   2.263       .  S
Mg321       O327   2.100       .  S
Mg321       O335   2.182       .  S
Mg321       O323   2.286       .  S
C322        O360   1.270       .  A
C322        O328   1.273       .  A
C322       C1002   1.492       .  S
O323        C330   1.271       .  A
H324        C337   1.081       .  S
C325        O339   1.235       .  S
C325        O340   1.273       .  A
C325        H350   1.081       .  S
O326        C349   1.271       .  A
O327       Mg341   2.132       .  S
O328       Mg358   2.303       .  S
C329        O342   1.273       .  A
C329        O334   1.272       .  A
C329       C1022   1.481       .  S
C330        O357   1.274       .  A
C330       C1035   1.479       .  S
Mg331       O338   2.179       .  S
Mg331       O339   2.135       .  S
Mg331       O332   2.279       .  S
Mg331       O333   2.318       .  S
Mg331       O360   2.290       .  S
O333        C337   1.274       .  A
O334       Mg341   2.277       .  S
O335        C354   1.262       .  A
O336        C356   1.277       .  A
O336       Mg352   2.329       .  S
O338       Mg352   2.161       .  S
O338        C349   1.235       .  S
O339       Mg358   2.168       .  S
O340       Mg352   2.325       .  S
Mg341       O357   2.297       .  S
O342       Mg358   2.271       .  S
H343        C348   1.081       .  S
O344       Mg352   2.137       .  S
O344        C347   1.237       .  S
H345        C347   1.081       .  S
H346        C349   1.080       .  S
O351       Mg358   2.282       .  S
C354        O359   1.272       .  A
C354       C1055   1.461       .  S
O355        C356   1.273       .  A
C356       C1045   1.491       .  S
O361       Mg363   2.166       .  S
O361       Mg369   2.142       .  S
O361        C396   1.235       .  S
C362        O375   1.235       .  S
C362        O399   1.272       .  A
C362        H401   1.080       .  S
Mg363       O392   2.159       .  S
Mg363       O407   2.298       .  S
Mg363       O403   2.270       .  S
Mg363       O374   2.291       .  S
O364       Mg406   2.166       .  S
O364       Mg389   2.138       .  S
O364        C385   1.236       .  S
O365        C396   1.271       .  A
O365       Mg389   2.315       .  S
C366        O368   1.270       .  A
C366        O380   1.268       .  A
C366        C992   1.464       .  S
O367        C395   1.272       .  A
O367       Mg369   2.315       .  S
O368       Mg400   2.275       .  S
Mg369       O375   2.179       .  S
Mg369       O383   2.297       .  S
Mg369       O371   2.299       .  S
C370        O408   1.263       .  A
C370        O376   1.276       .  A
C370        C952   1.472       .  S
O371        C378   1.272       .  A
H372        C385   1.081       .  S
C373        O387   1.236       .  S
C373        O388   1.270       .  A
C373        H398   1.081       .  S
O374        C397   1.267       .  A
O375       Mg389   2.168       .  S
O376       Mg406   2.321       .  S
C377        O390   1.272       .  A
C377        O382   1.275       .  A
C377        C982   1.483       .  S
C378        O405   1.269       .  A
C378        C972   1.491       .  S
Mg379       O386   2.116       .  S
Mg379       O387   2.148       .  S
Mg379       O380   2.269       .  S
Mg379       O381   2.289       .  S
Mg379       O408   2.204       .  S
O381        C385   1.269       .  A
O382       Mg389   2.304       .  S
O383        C402   1.272       .  A
O384        C404   1.269       .  A
O384       Mg400   2.261       .  S
O386       Mg400   2.133       .  S
O386        C397   1.234       .  S
O387       Mg406   2.135       .  S
O388       Mg400   2.298       .  S
Mg389       O405   2.253       .  S
O390       Mg406   2.269       .  S
H391        C396   1.081       .  S
O392       Mg400   2.151       .  S
O392        C395   1.235       .  S
H393        C395   1.081       .  S
H394        C397   1.081       .  S
O399       Mg406   2.313       .  S
C402        O407   1.273       .  A
C402        C945   1.490       .  S
O403        C404   1.273       .  A
C404        C965   1.467       .  S
C409        C935   1.507       .  S
C409        N410   1.361       .  A
C409        N414   1.366       .  A
N410        C411   1.359       .  A
C411        C942   1.494       .  S
C411        N412   1.359       .  A
N412        C413   1.363       .  A
C413       C1005   1.493       .  S
C413        N414   1.363       .  A
O415       Mg417   2.098       .  S
O415       Mg423   2.151       .  S
O415        C450   1.236       .  S
C416        O429   1.235       .  S
C416        O453   1.269       .  A
C416        H455   1.081       .  S
Mg417       O446   2.141       .  S
Mg417       O461   2.338       .  S
Mg417       O457   2.223       .  S
Mg417       O428   2.337       .  S
O418       Mg460   2.141       .  S
O418       Mg443   2.151       .  S
O418        C439   1.233       .  S
O419        C450   1.268       .  A
O419       Mg443   2.278       .  S
C420        O422   1.266       .  A
C420        O434   1.273       .  A
C420        C892   1.477       .  S
O421        C449   1.268       .  A
O421       Mg423   2.293       .  S
O422       Mg454   2.238       .  S
Mg423       O429   2.135       .  S
Mg423       O437   2.279       .  S
Mg423       O425   2.261       .  S
C424        O462   1.275       .  A
C424        O430   1.276       .  A
C424       C1242   1.502       .  S
O425        C432   1.272       .  A
H426        C439   1.080       .  S
C427        O441   1.236       .  S
C427        O442   1.273       .  A
C427        H452   1.081       .  S
O428        C451   1.277       .  A
O429       Mg443   2.157       .  S
O430       Mg460   2.314       .  S
C431        O444   1.274       .  A
C431        O436   1.270       .  A
C431        C902   1.475       .  S
C432        O459   1.269       .  A
C432        C915   1.477       .  S
Mg433       O440   2.194       .  S
Mg433       O441   2.149       .  S
Mg433       O434   2.298       .  S
Mg433       O435   2.306       .  S
Mg433       O462   2.318       .  S
O435        C439   1.269       .  A
O436       Mg443   2.280       .  S
O437        C456   1.274       .  A
O438        C458   1.270       .  A
O438       Mg454   2.298       .  S
O440       Mg454   2.154       .  S
O440        C451   1.239       .  S
O441       Mg460   2.162       .  S
O442       Mg454   2.318       .  S
Mg443       O459   2.258       .  S
O444       Mg460   2.272       .  S
H445        C450   1.081       .  S
O446       Mg454   2.141       .  S
O446        C449   1.234       .  S
H447        C449   1.081       .  S
H448        C451   1.081       .  S
O453       Mg460   2.295       .  S
C456        O461   1.277       .  A
C456        C932   1.502       .  S
O457        C458   1.267       .  A
C458        C925   1.479       .  S
O463       Mg465   2.116       .  S
O463       Mg471   2.162       .  S
O463        C498   1.234       .  S
C464        O477   1.234       .  S
C464        O501   1.267       .  A
C464        H503   1.081       .  S
Mg465       O494   2.142       .  S
Mg465       O509   2.288       .  S
Mg465       O505   2.239       .  S
Mg465       O476   2.318       .  S
O466       Mg508   2.154       .  S
O466       Mg491   2.144       .  S
O466        C487   1.234       .  S
O467        C498   1.267       .  A
O467       Mg491   2.283       .  S
C468        O470   1.262       .  A
C468        O482   1.272       .  A
C468        C882   1.470       .  S
O469        C497   1.265       .  A
O469       Mg471   2.277       .  S
O470       Mg502   2.209       .  S
Mg471       O477   2.118       .  S
Mg471       O485   2.225       .  S
Mg471       O473   2.246       .  S
C472        O510   1.272       .  A
C472        O478   1.273       .  A
C472        C842   1.491       .  S
O473        C480   1.268       .  A
H474        C487   1.081       .  S
C475        O489   1.235       .  S
C475        O490   1.271       .  A
C475        H500   1.081       .  S
O476        C499   1.273       .  A
O477       Mg491   2.148       .  S
O478       Mg508   2.295       .  S
C479        O492   1.272       .  A
C479        O484   1.271       .  A
C479        C875   1.478       .  S
C480        O507   1.272       .  A
C480        C852   1.470       .  S
Mg481       O488   2.182       .  S
Mg481       O489   2.150       .  S
Mg481       O482   2.267       .  S
Mg481       O483   2.311       .  S
Mg481       O510   2.309       .  S
O483        C487   1.271       .  A
O484       Mg491   2.258       .  S
O485        C504   1.267       .  A
O486        C506   1.274       .  A
O486       Mg502   2.308       .  S
O488       Mg502   2.174       .  S
O488        C499   1.236       .  S
O489       Mg508   2.161       .  S
O490       Mg502   2.312       .  S
Mg491       O507   2.277       .  S
O492       Mg508   2.266       .  S
H493        C498   1.081       .  S
O494       Mg502   2.104       .  S
O494        C497   1.234       .  S
H495        C497   1.081       .  S
H496        C499   1.081       .  S
O501       Mg508   2.288       .  S
C504        O509   1.272       .  A
C504        C832   1.474       .  S
O505        C506   1.268       .  A
C506        C862   1.476       .  S
O511       Mg513   2.152       .  S
O511       Mg519   2.144       .  S
O511        C546   1.232       .  S
C512        O525   1.237       .  S
C512        O549   1.271       .  A
C512        H551   1.081       .  S
Mg513       O542   2.141       .  S
Mg513       O557   2.288       .  S
Mg513       O553   2.249       .  S
Mg513       O524   2.300       .  S
O514       Mg556   2.145       .  S
O514       Mg539   2.133       .  S
O514        C535   1.235       .  S
O515        C546   1.267       .  A
O515       Mg539   2.296       .  S
C516        O518   1.272       .  A
C516        O530   1.274       .  A
C516        C795   1.477       .  S
O517        C545   1.274       .  A
O517       Mg519   2.322       .  S
O518       Mg550   2.268       .  S
Mg519       O525   2.144       .  S
Mg519       O533   2.271       .  S
Mg519       O521   2.299       .  S
C520        O558   1.269       .  A
C520        O526   1.268       .  A
C520        C785   1.461       .  S
O521        C528   1.274       .  A
H522        C535   1.081       .  S
C523        O537   1.234       .  S
C523        O538   1.268       .  A
C523        H548   1.081       .  S
O524        C547   1.271       .  A
O525       Mg539   2.175       .  S
O526       Mg556   2.263       .  S
C527        O540   1.267       .  A
C527        O532   1.269       .  A
C527        C802   1.486       .  S
C528        O555   1.270       .  A
C528        C825   1.477       .  S
Mg529       O536   2.124       .  S
Mg529       O537   2.157       .  S
Mg529       O530   2.300       .  S
Mg529       O531   2.296       .  S
Mg529       O558   2.244       .  S
O531        C535   1.269       .  A
O532       Mg539   2.282       .  S
O533        C552   1.268       .  A
O534        C554   1.270       .  A
O534       Mg550   2.277       .  S
O536       Mg550   2.140       .  S
O536        C547   1.236       .  S
O537       Mg556   2.132       .  S
O538       Mg550   2.294       .  S
Mg539       O555   2.255       .  S
O540       Mg556   2.234       .  S
H541        C546   1.081       .  S
O542       Mg550   2.152       .  S
O542        C545   1.237       .  S
H543        C545   1.080       .  S
H544        C547   1.081       .  S
O549       Mg556   2.303       .  S
C552        O557   1.271       .  A
C552       C1365   1.493       .  S
O553        C554   1.269       .  A
C554        C815   1.467       .  S
C559        C835   1.488       .  S
C559        N560   1.356       .  A
C559        N564   1.359       .  A
N560        C561   1.358       .  A
C561        C782   1.471       .  S
C561        N562   1.355       .  A
N562        C563   1.353       .  A
C563        C955   1.466       .  S
C563        N564   1.354       .  A
O565       Mg567   2.155       .  S
O565       Mg573   2.151       .  S
O565        C600   1.236       .  S
C566        O579   1.237       .  S
C566        O603   1.274       .  A
C566        H605   1.081       .  S
Mg567       O596   2.146       .  S
Mg567       O611   2.319       .  S
Mg567       O607   2.273       .  S
Mg567       O578   2.299       .  S
O568       Mg610   2.161       .  S
O568       Mg593   2.135       .  S
O568        C589   1.235       .  S
O569        C600   1.273       .  A
O569       Mg593   2.320       .  S
C570        O572   1.267       .  A
C570        O584   1.274       .  A
C570        C775   1.467       .  S
O571        C599   1.268       .  A
O571       Mg573   2.299       .  S
O572       Mg604   2.224       .  S
Mg573       O579   2.186       .  S
Mg573       O587   2.281       .  S
Mg573       O575   2.284       .  S
C574        O612   1.271       .  A
C574        O580   1.280       .  A
C574        C732   1.501       .  S
O575        C582   1.270       .  A
H576        C589   1.081       .  S
C577        O591   1.237       .  S
C577        O592   1.270       .  A
C577        H602   1.081       .  S
O578        C601   1.269       .  A
O579       Mg593   2.156       .  S
O580       Mg610   2.340       .  S
C581        O594   1.271       .  A
C581        O586   1.271       .  A
C581        C762   1.480       .  S
C582        O609   1.264       .  A
C582        C755   1.471       .  S
Mg583       O590   2.144       .  S
Mg583       O591   2.147       .  S
Mg583       O584   2.299       .  S
Mg583       O585   2.295       .  S
Mg583       O612   2.266       .  S
O585        C589   1.268       .  A
O586       Mg593   2.284       .  S
O587        C606   1.273       .  A
O588        C608   1.270       .  A
O588       Mg604   2.282       .  S
O590       Mg604   2.145       .  S
O590        C601   1.234       .  S
O591       Mg610   2.125       .  S
O592       Mg604   2.288       .  S
Mg593       O609   2.232       .  S
O594       Mg610   2.266       .  S
H595        C600   1.081       .  S
O596       Mg604   2.140       .  S
O596        C599   1.233       .  S
H597        C599   1.080       .  S
H598        C601   1.081       .  S
O603       Mg610   2.323       .  S
C606        O611   1.275       .  A
C606        C722   1.499       .  S
O607        C608   1.273       .  A
C608        C742   1.468       .  S
C613        C845   1.491       .  S
C613        N614   1.366       .  A
C613        N618   1.361       .  A
N614        C615   1.364       .  A
C615       C1125   1.510       .  S
C615        N616   1.363       .  A
N616        C617   1.363       .  A
C617        C725   1.501       .  S
C617        N618   1.362       .  A
C619       C1195   1.491       .  S
C619        N620   1.360       .  A
C619        N624   1.358       .  A
N620        C621   1.363       .  A
C621       C1395   1.501       .  S
C621        N622   1.366       .  A
N622        C623   1.361       .  A
C623        C735   1.502       .  S
C623        N624   1.360       .  A
C625       C1435   1.475       .  S
C625        C626   1.409       .  A
C625        C630   1.400       .  A
C626       C1295   1.477   1_655  S
C626        C627   1.398   1_655  A
C627        H632   1.085       .  S
C627        C628   1.398   1_455  A
C628       C1095   1.473   1_655  S
C628        C629   1.413       .  A
C629        C765   1.481       .  S
C629        C630   1.403       .  A
C630        H631   1.085       .  S
C633       C1222   1.465       .  S
C633        C634   1.409   1_565  A
C633        C638   1.396       .  A
C634       C1345   1.475       .  S
C634        C635   1.400       .  A
C635        H640   1.085       .  S
C635        C636   1.394       .  A
C636        C812   1.466       .  S
C636        C637   1.407   1_545  A
C637        C772   1.468       .  S
C637        C638   1.396       .  A
C638        H639   1.085       .  S
C641       C1425   1.474       .  S
C641        C642   1.413   1_556  A
C641        C646   1.399       .  A
C642        C872   1.471       .  S
C642        C643   1.394       .  A
C643        H648   1.086       .  S
C643        C644   1.392   1_554  A
C644       C1152   1.466   1_556  S
C644        C645   1.407       .  A
C645       C1232   1.468       .  S
C645        C646   1.398       .  A
C646        H647   1.085       .  S
C649       C1212   1.486       .  S
C649        C650   1.410   1_565  A
C649        C654   1.407       .  A
C650       C1325   1.465       .  S
C650        C651   1.393       .  A
C651        H656   1.086       .  S
C651        C652   1.393       .  A
C652        C905   1.475       .  S
C652        C653   1.414   1_545  A
C653       C1105   1.482       .  S
C653        C654   1.408       .  A
C654        H655   1.084       .  S
C657       C1275   1.468       .  S
C657        C658   1.415   1_455  A
C657        C662   1.394       .  A
C658       C1405   1.490       .  S
C658        C659   1.408       .  A
C659        H664   1.084       .  S
C659        C660   1.403       .  A
C660        C822   1.477       .  S
C660        C661   1.410   1_655  A
C661        C895   1.471       .  S
C661        C662   1.392       .  A
C662        H663   1.086       .  S
C665       C1302   1.478       .  S
C665        C666   1.411   1_556  A
C665        C670   1.401       .  A
C666       C1032   1.484       .  S
C666        C667   1.406       .  A
C667        H672   1.084       .  S
C667        C668   1.408       .  A
C668       C1132   1.482       .  S
C668        C669   1.411   1_554  A
C669       C1202   1.480       .  S
C669        C670   1.399       .  A
C670        H671   1.085       .  S
C673       C1415   1.474       .  S
C673        C674   1.410   1_556  A
C673        C678   1.396       .  A
C674        C855   1.472       .  S
C674        C675   1.400       .  A
C675        H680   1.084       .  S
C675        C676   1.401       .  A
C676        C995   1.477       .  S
C676        C677   1.410   1_554  A
C677       C1355   1.469       .  S
C677        C678   1.397       .  A
C678        H679   1.084       .  S
C681        C985   1.484       .  S
C681        C682   1.412   1_545  A
C681        C686   1.409       .  A
C682       C1165   1.471       .  S
C682        C683   1.395       .  A
C683        H688   1.086       .  S
C683        C684   1.392       .  A
C684        C745   1.475       .  S
C684        C685   1.410   1_565  A
C685        C792   1.477       .  S
C685        C686   1.408       .  A
C686        H687   1.084       .  S
C689        C752   1.479       .  S
C689        C690   1.416       .  A
C689        C694   1.391       .  A
C690       C1072   1.482   1_655  S
C690        C691   1.412   1_655  A
C691        H696   1.084       .  S
C691        C692   1.407   1_455  A
C692       C1042   1.489   1_655  S
C692        C693   1.410       .  A
C693        C885   1.467       .  S
C693        C694   1.393       .  A
C694        H695   1.086       .  S
C697       C1012   1.480       .  S
C697        C698   1.415   1_455  A
C697        C702   1.398       .  A
C698        C865   1.477       .  S
C698        C699   1.405       .  A
C699        H704   1.084       .  S
C699        C700   1.401       .  A
C700        C805   1.478       .  S
C700        C701   1.408       .  A
C701        C922   1.470   1_655  S
C701        C702   1.393   1_655  A
C702        H703   1.085       .  S
C705       C1142   1.485       .  S
C705        C706   1.417   1_565  A
C705        C710   1.413       .  A
C706        C975   1.479       .  S
C706        C707   1.397       .  A
C707        H712   1.085       .  S
C707        C708   1.394       .  A
C708        C912   1.470       .  S
C708        C709   1.405   1_545  A
C709       C1085   1.482       .  S
C709        C710   1.405       .  A
C710        H711   1.084       .  S
C713        C962   1.466   1_556  S
C713        C714   1.411       .  A
C713        C718   1.396   1_556  A
C714       C1335   1.481       .  S
C714        C715   1.398       .  A
C715        H720   1.085       .  S
C715        C716   1.400       .  A
C716       C1282   1.471       .  S
C716        C717   1.412       .  A
C717       C1025   1.475   1_556  S
C717        C718   1.395   1_556  A
C718        H719   1.086       .  S
C721        H728   1.083       .  S
C721        C722   1.408       .  A
C721        C726   1.406       .  A
C722        C723   1.419       .  A
C723        C724   1.403       .  A
C723       Br730   1.924       .  S
C724        H729   1.083       .  S
C724        C725   1.407       .  A
C725        C726   1.417       .  A
C726       Br727   1.921       .  S
C731        H738   1.083       .  S
C731        C732   1.409       .  A
C731        C736   1.406       .  A
C732        C733   1.419       .  A
C733        C734   1.400       .  A
C733       Br740   1.925       .  S
C734        H739   1.083       .  S
C734        C735   1.408       .  A
C735        C736   1.417       .  A
C736       Br737   1.921       .  S
C741        H748   1.083       .  S
C741        C742   1.403       .  A
C741        C746   1.399       .  A
C742        C743   1.409       .  A
C743        C744   1.396       .  A
C743       Br750   1.920       .  S
C744        H749   1.083       .  S
C744        C745   1.401       .  A
C745        C746   1.408       .  A
C746       Br747   1.918       .  S
C751        H758   1.084       .  S
C751        C752   1.401       .  A
C751        C756   1.398       .  A
C752        C753   1.413       .  A
C753        C754   1.397       .  A
C753       Br760   1.920       .  S
C754        H759   1.084       .  S
C754        C755   1.401       .  A
C755        C756   1.413       .  A
C756       Br757   1.921       .  S
C761        H768   1.084       .  S
C761        C762   1.407       .  A
C761        C766   1.396       .  A
C762        C763   1.410       .  A
C763        C764   1.399       .  A
C763       Br770   1.918       .  S
C764        H769   1.083       .  S
C764        C765   1.404       .  A
C765        C766   1.407       .  A
C766       Br767   1.920       .  S
C771        H778   1.083       .  S
C771        C772   1.404       .  A
C771        C776   1.398       .  A
C772        C773   1.402       .  A
C773        C774   1.392       .  A
C773       Br780   1.918       .  S
C774        H779   1.084       .  S
C774        C775   1.405       .  A
C775        C776   1.407       .  A
C776       Br777   1.919       .  S
C781        H788   1.083       .  S
C781        C782   1.405       .  A
C781        C786   1.394       .  A
C782        C783   1.410       .  A
C783        C784   1.393       .  A
C783       Br790   1.915       .  S
C784        H789   1.084       .  S
C784        C785   1.399       .  A
C785        C786   1.407       .  A
C786       Br787   1.922       .  S
C791        H798   1.083       .  S
C791        C792   1.403       .  A
C791        C796   1.400       .  A
C792        C793   1.405       .  A
C793        C794   1.399       .  A
C793       Br800   1.917       .  S
C794        H799   1.084       .  S
C794        C795   1.405       .  A
C795        C796   1.410       .  A
C796       Br797   1.919       .  S
C801        H808   1.083       .  S
C801        C802   1.412       .  A
C801        C806   1.397       .  A
C802        C803   1.418       .  A
C803        C804   1.394       .  A
C803       Br810   1.925       .  S
C804        H809   1.082       .  S
C804        C805   1.400       .  A
C805        C806   1.403       .  A
C806       Br807   1.919       .  S
C811        H818   1.084       .  S
C811        C812   1.398       .  A
C811        C816   1.393       .  A
C812        C813   1.404       .  A
C813        C814   1.396       .  A
C813       Br820   1.918       .  S
C814        H819   1.084       .  S
C814        C815   1.404       .  A
C815        C816   1.411       .  A
C816       Br817   1.920       .  S
C821        H828   1.081       .  S
C821        C822   1.399       .  A
C821        C826   1.394       .  A
C822        C823   1.407       .  A
C823        C824   1.402       .  A
C823       Br830   1.918       .  S
C824        H829   1.083       .  S
C824        C825   1.406       .  A
C825        C826   1.413       .  A
C826       Br827   1.922       .  S
C831        H838   1.084       .  S
C831        C832   1.403       .  A
C831        C836   1.399       .  A
C832        C833   1.409       .  A
C833        C834   1.391       .  A
C833       Br840   1.924       .  S
C834        H839   1.083       .  S
C834        C835   1.407       .  A
C835        C836   1.420       .  A
C836       Br837   1.923       .  S
C841        H848   1.084       .  S
C841        C842   1.405       .  A
C841        C846   1.399       .  A
C842        C843   1.413       .  A
C843        C844   1.412       .  A
C843       Br850   1.918       .  S
C844        H849   1.083       .  S
C844        C845   1.410       .  A
C845        C846   1.408       .  A
C846       Br847   1.917       .  S
C851        H858   1.084       .  S
C851        C852   1.405       .  A
C851        C856   1.394       .  A
C852        C853   1.411       .  A
C853        C854   1.397       .  A
C853       Br860   1.918       .  S
C854        H859   1.083       .  S
C854        C855   1.401       .  A
C855        C856   1.402       .  A
C856       Br857   1.917       .  S
C861        H868   1.083       .  S
C861        C862   1.405       .  A
C861        C866   1.401       .  A
C862        C863   1.414       .  A
C863        C864   1.395       .  A
C863       Br870   1.921       .  S
C864        H869   1.084       .  S
C864        C865   1.398       .  A
C865        C866   1.408       .  A
C866       Br867   1.917       .  S
C871        H878   1.084       .  S
C871        C872   1.403       .  A
C871        C876   1.394       .  A
C872        C873   1.401       .  A
C873        C874   1.395       .  A
C873       Br880   1.918       .  S
C874        H879   1.081       .  S
C874        C875   1.410       .  A
C875        C876   1.413       .  A
C876       Br877   1.923       .  S
C881        H888   1.084       .  S
C881        C882   1.403       .  A
C881        C886   1.386       .  A
C882        C883   1.417       .  A
C883        C884   1.393       .  A
C883       Br890   1.921       .  S
C884        H889   1.083       .  S
C884        C885   1.397       .  A
C885        C886   1.408       .  A
C886       Br887   1.924       .  S
C891        H898   1.083       .  S
C891        C892   1.407       .  A
C891        C896   1.400       .  A
C892        C893   1.412       .  A
C893        C894   1.392       .  A
C893       Br900   1.918       .  S
C894        H899   1.083       .  S
C894        C895   1.398       .  A
C895        C896   1.404       .  A
C896       Br897   1.917       .  S
C901        H908   1.084       .  S
C901        C902   1.403       .  A
C901        C906   1.396       .  A
C902        C903   1.411       .  A
C903        C904   1.400       .  A
C903       Br910   1.919       .  S
C904        H909   1.083       .  S
C904        C905   1.403       .  A
C905        C906   1.407       .  A
C906       Br907   1.917       .  S
C911        H918   1.083       .  S
C911        C912   1.399       .  A
C911        C916   1.396       .  A
C912        C913   1.402       .  A
C913        C914   1.391       .  A
C913       Br920   1.920       .  S
C914        H919   1.084       .  S
C914        C915   1.407       .  A
C915        C916   1.416       .  A
C916       Br917   1.920       .  S
C921        H928   1.083       .  S
C921        C922   1.397       .  A
C921        C926   1.394       .  A
C922        C923   1.402       .  A
C923        C924   1.394       .  A
C923       Br930   1.918       .  S
C924        H929   1.083       .  S
C924        C925   1.408       .  A
C925        C926   1.417       .  A
C926       Br927   1.922       .  S
C931        H938   1.083       .  S
C931        C932   1.407       .  A
C931        C936   1.404       .  A
C932        C933   1.417       .  A
C933        C934   1.405       .  A
C933       Br940   1.923       .  S
C934        H939   1.083       .  S
C934        C935   1.411       .  A
C935        C936   1.422       .  A
C936       Br937   1.925       .  S
C941        H948   1.083       .  S
C941        C942   1.409       .  A
C941        C946   1.407       .  A
C942        C943   1.415       .  A
C943        C944   1.401       .  A
C943       Br950   1.917       .  S
C944        H949   1.084       .  S
C944        C945   1.405       .  A
C945        C946   1.410       .  A
C946       Br947   1.916       .  S
C951        H958   1.084       .  S
C951        C952   1.404       .  A
C951        C956   1.398       .  A
C952        C953   1.414       .  A
C953        C954   1.392       .  A
C953       Br960   1.924       .  S
C954        H959   1.084       .  S
C954        C955   1.400       .  A
C955        C956   1.406       .  A
C956       Br957   1.915       .  S
C961        H968   1.084       .  S
C961        C962   1.399       .  A
C961        C966   1.395       .  A
C962        C963   1.406       .  A
C963        C964   1.395       .  A
C963       Br970   1.919   1_554  S
C964        H969   1.084       .  S
C964        C965   1.403       .  A
C965        C966   1.411       .  A
C966       Br967   1.921       .  S
C971        H978   1.083       .  S
C971        C972   1.411       .  A
C971        C976   1.400       .  A
C972        C973   1.418       .  A
C973        C974   1.396       .  A
C973       Br980   1.919       .  S
C974        H979   1.084       .  S
C974        C975   1.400       .  A
C975        C976   1.405       .  A
C976       Br977   1.916       .  S
C981        H988   1.084       .  S
C981        C982   1.407       .  A
C981        C986   1.399       .  A
C982        C983   1.412       .  A
C983        C984   1.402       .  A
C983       Br990   1.918       .  S
C984        H989   1.083       .  S
C984        C985   1.404       .  A
C985        C986   1.408       .  A
C986       Br987   1.920       .  S
C991        H998   1.084       .  S
C991        C992   1.403       .  A
C991        C996   1.397       .  A
C992        C993   1.405       .  A
C993        C994   1.396       .  A
C993      Br1000   1.917       .  S
C994        H999   1.083       .  S
C994        C995   1.403       .  A
C995        C996   1.408       .  A
C996       Br997   1.920       .  S
C1001      H1008   1.083       .  S
C1001      C1002   1.410       .  A
C1001      C1006   1.412       .  A
C1002      C1003   1.413       .  A
C1003      C1004   1.394       .  A
C1003     Br1010   1.919       .  S
C1004      H1009   1.079       .  S
C1004      C1005   1.400       .  A
C1005      C1006   1.415       .  A
C1006     Br1007   1.918       .  S
C1011      H1018   1.083       .  S
C1011      C1012   1.401       .  A
C1011      C1016   1.397       .  A
C1012      C1013   1.408       .  A
C1013      C1014   1.394       .  A
C1013     Br1020   1.923       .  S
C1014      H1019   1.083       .  S
C1014      C1015   1.410       .  A
C1015      C1016   1.417       .  A
C1016     Br1017   1.922       .  S
C1021      H1028   1.083       .  S
C1021      C1022   1.410       .  A
C1021      C1026   1.400       .  A
C1022      C1023   1.413       .  A
C1023      C1024   1.393       .  A
C1023     Br1030   1.920       .  S
C1024      H1029   1.084       .  S
C1024      C1025   1.401       .  A
C1025      C1026   1.403       .  A
C1026     Br1027   1.918       .  S
C1031      H1038   1.084       .  S
C1031      C1032   1.402       .  A
C1031      C1036   1.400       .  A
C1032      C1033   1.409       .  A
C1033      C1034   1.402       .  A
C1033     Br1040   1.919       .  S
C1034      H1039   1.084       .  S
C1034      C1035   1.406       .  A
C1035      C1036   1.411       .  A
C1036     Br1037   1.918       .  S
C1041      H1048   1.084       .  S
C1041      C1042   1.401       .  A
C1041      C1046   1.402       .  A
C1042      C1043   1.409       .  A
C1043      C1044   1.405       .  A
C1043     Br1050   1.916   1_455  S
C1044      H1049   1.083       .  S
C1044      C1045   1.408       .  A
C1045      C1046   1.416       .  A
C1046     Br1047   1.921       .  S
C1051      H1058   1.084       .  S
C1051      C1052   1.402       .  A
C1051      C1056   1.394       .  A
C1052      C1053   1.405       .  A
C1053      C1054   1.387       .  A
C1053     Br1060   1.923       .  S
C1054      H1059   1.084       .  S
C1054      C1055   1.404       .  A
C1055      C1056   1.408       .  A
C1056     Br1057   1.920       .  S
C1061      H1068   1.084       .  S
C1061      C1062   1.399       .  A
C1061      C1066   1.391       .  A
C1062      C1063   1.411       .  A
C1063      C1064   1.393       .  A
C1063     Br1070   1.923       .  S
C1064      H1069   1.083       .  S
C1064      C1065   1.403       .  A
C1065      C1066   1.415       .  A
C1066     Br1067   1.924       .  S
C1071      H1078   1.084       .  S
C1071      C1072   1.404       .  A
C1071      C1076   1.402       .  A
C1072      C1073   1.407       .  A
C1073      C1074   1.398       .  A
C1073     Br1080   1.916   1_455  S
C1074      H1079   1.084       .  S
C1074      C1075   1.405       .  A
C1075      C1076   1.413       .  A
C1076     Br1077   1.920       .  S
C1081      H1088   1.083       .  S
C1081      C1082   1.407       .  A
C1081      C1086   1.399       .  A
C1082      C1083   1.414       .  A
C1083      C1084   1.400       .  A
C1083     Br1090   1.920       .  S
C1084      H1089   1.084       .  S
C1084      C1085   1.403       .  A
C1085      C1086   1.406       .  A
C1086     Br1087   1.918       .  S
C1091      H1098   1.084       .  S
C1091      C1092   1.408       .  A
C1091      C1096   1.397       .  A
C1092      C1093   1.414       .  A
C1093      C1094   1.395       .  A
C1093     Br1100   1.920       .  S
C1094      H1099   1.084       .  S
C1094      C1095   1.399       .  A
C1095      C1096   1.404       .  A
C1096     Br1097   1.917       .  S
C1101      H1108   1.083       .  S
C1101      C1102   1.409       .  A
C1101      C1106   1.397       .  A
C1102      C1103   1.421       .  A
C1103      C1104   1.400       .  A
C1103     Br1110   1.924       .  S
C1104      H1109   1.084       .  S
C1104      C1105   1.400       .  A
C1105      C1106   1.408       .  A
C1106     Br1107   1.918       .  S
C1111      H1118   1.084       .  S
C1111      C1112   1.401       .  A
C1111      C1116   1.392       .  A
C1112      C1113   1.412       .  A
C1113      C1114   1.399       .  A
C1113     Br1120   1.922       .  S
C1114      H1119   1.083       .  S
C1114      C1115   1.407       .  A
C1115      C1116   1.415       .  A
C1116     Br1117   1.925       .  S
C1121      H1128   1.083       .  S
C1121      C1122   1.410       .  A
C1121      C1126   1.407       .  A
C1122      C1123   1.412       .  A
C1123      C1124   1.407       .  A
C1123     Br1130   1.912       .  S
C1124      H1129   1.083       .  S
C1124      C1125   1.411       .  A
C1125      C1126   1.420       .  A
C1126     Br1127   1.918       .  S
C1131      H1138   1.083       .  S
C1131      C1132   1.403       .  A
C1131      C1136   1.399       .  A
C1132      C1133   1.408       .  A
C1133      C1134   1.400       .  A
C1133     Br1140   1.918       .  S
C1134      H1139   1.084       .  S
C1134      C1135   1.404       .  A
C1135      C1136   1.408       .  A
C1136     Br1137   1.918       .  S
C1141      H1148   1.083       .  S
C1141      C1142   1.405       .  A
C1141      C1146   1.404       .  A
C1142      C1143   1.409       .  A
C1143      C1144   1.397       .  A
C1143     Br1150   1.920       .  S
C1144      H1149   1.084       .  S
C1144      C1145   1.405       .  A
C1145      C1146   1.411       .  A
C1146     Br1147   1.918       .  S
C1151      H1158   1.084       .  S
C1151      C1152   1.398       .  A
C1151      C1156   1.396       .  A
C1152      C1153   1.408       .  A
C1153      C1154   1.393       .  A
C1153     Br1160   1.920       .  S
C1154      H1159   1.084       .  S
C1154      C1155   1.402       .  A
C1155      C1156   1.413       .  A
C1156     Br1157   1.921       .  S
C1161      H1168   1.083       .  S
C1161      C1162   1.415       .  A
C1161      C1166   1.396       .  A
C1162      C1163   1.412       .  A
C1163      C1164   1.393       .  A
C1163     Br1170   1.911       .  S
C1164      H1169   1.084       .  S
C1164      C1165   1.400       .  A
C1165      C1166   1.401       .  A
C1166     Br1167   1.916       .  S
C1171      H1178   1.083       .  S
C1171      C1172   1.407       .  A
C1171      C1176   1.403       .  A
C1172      C1173   1.414       .  A
C1173      C1174   1.398       .  A
C1173     Br1180   1.922       .  S
C1174      H1179   1.083       .  S
C1174      C1175   1.405       .  A
C1175      C1176   1.414       .  A
C1176     Br1177   1.921       .  S
C1181      H1188   1.084       .  S
C1181      C1182   1.404       .  A
C1181      C1186   1.394       .  A
C1182      C1183   1.417       .  A
C1183      C1184   1.405       .  A
C1183     Br1190   1.921       .  S
C1184      H1189   1.083       .  S
C1184      C1185   1.404       .  A
C1185      C1186   1.414       .  A
C1186     Br1187   1.925       .  S
C1191      H1198   1.083       .  S
C1191      C1192   1.409       .  A
C1191      C1196   1.404       .  A
C1192      C1193   1.412       .  A
C1193      C1194   1.402       .  A
C1193     Br1200   1.915       .  S
C1194      H1199   1.084       .  S
C1194      C1195   1.406       .  A
C1195      C1196   1.414       .  A
C1196     Br1197   1.921       .  S
C1201      H1208   1.083       .  S
C1201      C1202   1.400       .  A
C1201      C1206   1.394       .  A
C1202      C1203   1.407       .  A
C1203      C1204   1.400       .  A
C1203     Br1210   1.917       .  S
C1204      H1209   1.083       .  S
C1204      C1205   1.407       .  A
C1205      C1206   1.413       .  A
C1206     Br1207   1.922       .  S
C1211      H1218   1.083       .  S
C1211      C1212   1.402       .  A
C1211      C1216   1.406       .  A
C1212      C1213   1.405       .  A
C1213      C1214   1.397       .  A
C1213     Br1220   1.916       .  S
C1214      H1219   1.083       .  S
C1214      C1215   1.408       .  A
C1215      C1216   1.423       .  A
C1216     Br1217   1.923       .  S
C1221      H1228   1.084       .  S
C1221      C1222   1.397       .  A
C1221      C1226   1.393       .  A
C1222      C1223   1.404       .  A
C1223      C1224   1.394       .  A
C1223     Br1230   1.918       .  S
C1224      H1229   1.084       .  S
C1224      C1225   1.405       .  A
C1225      C1226   1.414       .  A
C1226     Br1227   1.918       .  S
C1231      H1238   1.083       .  S
C1231      C1232   1.398       .  A
C1231      C1236   1.392       .  A
C1232      C1233   1.404       .  A
C1233      C1234   1.399       .  A
C1233     Br1240   1.917       .  S
C1234      H1239   1.083       .  S
C1234      C1235   1.407       .  A
C1235      C1236   1.415       .  A
C1236     Br1237   1.923       .  S
C1241      H1248   1.084       .  S
C1241      C1242   1.408       .  A
C1241      C1246   1.402       .  A
C1242      C1243   1.415       .  A
C1243      C1244   1.410       .  A
C1243     Br1250   1.914       .  S
C1244      H1249   1.083       .  S
C1244      C1245   1.409       .  A
C1245      C1246   1.416       .  A
C1246     Br1247   1.922       .  S
C1251      H1258   1.083       .  S
C1251      C1252   1.407       .  A
C1251      C1256   1.409       .  A
C1252      C1253   1.421       .  A
C1253      C1254   1.404       .  A
C1253     Br1260   1.923       .  S
C1254      H1259   1.083       .  S
C1254      C1255   1.407       .  A
C1255      C1256   1.424       .  A
C1256     Br1257   1.921       .  S
C1261      H1268   1.084       .  S
C1261      C1262   1.403       .  A
C1261      C1266   1.399       .  A
C1262      C1263   1.413       .  A
C1263      C1264   1.399       .  A
C1263     Br1270   1.921       .  S
C1264      H1269   1.082       .  S
C1264      C1265   1.402       .  A
C1265      C1266   1.410       .  A
C1266     Br1267   1.920       .  S
C1271      H1278   1.083       .  S
C1271      C1272   1.406       .  A
C1271      C1276   1.393       .  A
C1272      C1273   1.410       .  A
C1273      C1274   1.395       .  A
C1273     Br1280   1.921       .  S
C1274      H1279   1.084       .  S
C1274      C1275   1.402       .  A
C1275      C1276   1.404       .  A
C1276     Br1277   1.918       .  S
C1281      H1288   1.084       .  S
C1281      C1282   1.404       .  A
C1281      C1286   1.398       .  A
C1282      C1283   1.409       .  A
C1283      C1284   1.393       .  A
C1283     Br1290   1.918       .  S
C1284      H1289   1.084       .  S
C1284      C1285   1.400       .  A
C1285      C1286   1.406       .  A
C1286     Br1287   1.919       .  S
C1291      H1298   1.083       .  S
C1291      C1292   1.410       .  A
C1291      C1296   1.394       .  A
C1292      C1293   1.420       .  A
C1293      C1294   1.400       .  A
C1293     Br1300   1.920       .  S
C1294      H1299   1.084   1_455  S
C1294      C1295   1.398       .  A
C1295      C1296   1.404       .  A
C1296     Br1297   1.921       .  S
C1301      H1308   1.082       .  S
C1301      C1302   1.399       .  A
C1301      C1306   1.395       .  A
C1302      C1303   1.405       .  A
C1303      C1304   1.398       .  A
C1303     Br1310   1.918       .  S
C1304      H1309   1.083       .  S
C1304      C1305   1.408       .  A
C1305      C1306   1.415       .  A
C1306     Br1307   1.920       .  S
C1311      H1318   1.083       .  S
C1311      C1312   1.410       .  A
C1311      C1316   1.408       .  A
C1312      C1313   1.418       .  A
C1313      C1314   1.399       .  A
C1313     Br1320   1.916       .  S
C1314      H1319   1.081       .  S
C1314      C1315   1.404       .  A
C1315      C1316   1.418       .  A
C1316     Br1317   1.920       .  S
C1321      H1328   1.083       .  S
C1321      C1322   1.404       .  A
C1321      C1326   1.390       .  A
C1322      C1323   1.418       .  A
C1323      C1324   1.398       .  A
C1323     Br1330   1.923       .  S
C1324      H1329   1.084       .  S
C1324      C1325   1.399       .  A
C1325      C1326   1.405       .  A
C1326     Br1327   1.919       .  S
C1331      H1338   1.078       .  S
C1331      C1332   1.404       .  A
C1331      C1336   1.392       .  A
C1332      C1333   1.421       .  A
C1333      C1334   1.400       .  A
C1333     Br1340   1.918       .  S
C1334      H1339   1.083       .  S
C1334      C1335   1.399       .  A
C1335      C1336   1.410       .  A
C1336     Br1337   1.923       .  S
C1341      H1348   1.083       .  S
C1341      C1342   1.406       .  A
C1341      C1346   1.390       .  A
C1342      C1343   1.417       .  A
C1343      C1344   1.401       .  A
C1343     Br1350   1.921       .  S
C1344      H1349   1.083       .  S
C1344      C1345   1.401       .  A
C1345      C1346   1.406       .  A
C1346     Br1347   1.923       .  S
C1351      H1358   1.081       .  S
C1351      C1352   1.402       .  A
C1351      C1356   1.391       .  A
C1352      C1353   1.410       .  A
C1353      C1354   1.397       .  A
C1353     Br1360   1.919       .  S
C1354      H1359   1.083       .  S
C1354      C1355   1.401       .  A
C1355      C1356   1.403       .  A
C1356     Br1357   1.918       .  S
C1361      H1368   1.083       .  S
C1361      C1362   1.409       .  A
C1361      C1366   1.400       .  A
C1362      C1363   1.420       .  A
C1363      C1364   1.400       .  A
C1363     Br1370   1.924       .  S
C1364      H1369   1.082       .  S
C1364      C1365   1.406       .  A
C1365      C1366   1.416       .  A
C1366     Br1367   1.923       .  S
C1371      H1378   1.083       .  S
C1371      C1372   1.404       .  A
C1371      C1376   1.402       .  A
C1372      C1373   1.411       .  A
C1373      C1374   1.398       .  A
C1373     Br1380   1.921       .  S
C1374      H1379   1.084       .  S
C1374      C1375   1.403       .  A
C1375      C1376   1.413       .  A
C1376     Br1377   1.921       .  S
C1381      H1388   1.083       .  S
C1381      C1382   1.405       .  A
C1381      C1386   1.395       .  A
C1382      C1383   1.418       .  A
C1383      C1384   1.405       .  A
C1383     Br1390   1.921       .  S
C1384      H1389   1.083       .  S
C1384      C1385   1.406       .  A
C1385      C1386   1.415       .  A
C1386     Br1387   1.925       .  S
C1391      H1398   1.083       .  S
C1391      C1392   1.406       .  A
C1391      C1396   1.406       .  A
C1392      C1393   1.418       .  A
C1393      C1394   1.400       .  A
C1393     Br1400   1.924       .  S
C1394      H1399   1.083       .  S
C1394      C1395   1.406       .  A
C1395      C1396   1.419       .  A
C1396     Br1397   1.921       .  S
C1401      H1408   1.082       .  S
C1401      C1402   1.405       .  A
C1401      C1406   1.395       .  A
C1402      C1403   1.415       .  A
C1403      C1404   1.401       .  A
C1403     Br1410   1.921       .  S
C1404      H1409   1.082       .  S
C1404      C1405   1.405       .  A
C1405      C1406   1.413       .  A
C1406     Br1407   1.924       .  S
C1411      H1418   1.084       .  S
C1411      C1412   1.407       .  A
C1411      C1416   1.396       .  A
C1412      C1413   1.413       .  A
C1413      C1414   1.393       .  A
C1413     Br1420   1.919       .  S
C1414      H1419   1.083       .  S
C1414      C1415   1.399       .  A
C1415      C1416   1.404       .  A
C1416     Br1417   1.918       .  S
C1421      H1428   1.084       .  S
C1421      C1422   1.402       .  A
C1421      C1426   1.395       .  A
C1422      C1423   1.408       .  A
C1423      C1424   1.400       .  A
C1423     Br1430   1.918       .  S
C1424      H1429   1.083       .  S
C1424      C1425   1.403       .  A
C1425      C1426   1.408       .  A
C1426     Br1427   1.919       .  S
C1431      H1438   1.083       .  S
C1431      C1432   1.402       .  A
C1431      C1436   1.398       .  A
C1432      C1433   1.412       .  A
C1433      C1434   1.392       .  A
C1433     Br1440   1.924       .  S
C1434      H1439   1.083       .  S
C1434      C1435   1.400       .  A
C1435      C1436   1.407       .  A
C1436     Br1437   1.917       .  S
