geometry optimzed in LAMMPS
_audit_creation_date              2020-11-30 
_audit_creation_method            'lammps2cif' 
_symmetry_space_group_name_H-M    'P1' 
_symmetry_Int_Tables_number       1 
_symmetry_cell_setting            triclinic 
loop_ 
_symmetry_equiv_pos_as_xyz 
  x,y,z 
_cell_length_a                    63.55603977 
_cell_length_b                    63.09542862182615 
_cell_length_c                    63.908981451427934 
_cell_angle_alpha                 89.91904552479639 
_cell_angle_beta                  89.97934107679124 
_cell_angle_gamma                 89.84920525100964 
loop_ 
_atom_site_label 
_atom_site_type_symbol 
_atom_site_fract_x 
_atom_site_fract_y 
_atom_site_fract_z 
_atom_site_charge 
N1          N  0.75147803  0.89522263  0.39747257    -0.02800
C2          C  0.76221968  0.87662933  0.39791219    -0.00200
C3          C  0.76153921  0.86722937  0.37837666    -0.23100
C4          C  0.75084442  0.88101453  0.36535521    -0.23300
C5          C  0.74519451  0.89827875  0.37740533    -0.00300
H6          H  0.76799265  0.85197997  0.37403138     0.13400
H7          H  0.74769125  0.87876471  0.34887211     0.13500
N8          N  0.74958235  0.89403972  0.60075386    -0.02800
C9          C  0.76167275  0.87636967  0.59929953    -0.00200
C10         C  0.76447905  0.86743191  0.61885860    -0.23100
C11         C  0.75376708  0.88015093  0.63285300    -0.23300
C12         C  0.74462192  0.89628339  0.62128007    -0.00300
H13         H  0.77364373  0.85345158  0.62257919     0.13400
H14         H  0.75295992  0.87804426  0.64964067     0.13500
N15         N  0.75460460  0.09606127  0.39606970    -0.02800
C16         C  0.76500797  0.11468633  0.39824982    -0.00200
C17         C  0.76688238  0.12447563  0.37895222    -0.23100
C18         C  0.75693527  0.11158588  0.36461123    -0.23300
C19         C  0.74988184  0.09400452  0.37548153    -0.00300
H20         H  0.77447445  0.13945566  0.37570525     0.13400
H21         H  0.75482500  0.11493419  0.34815054     0.13500
N22         N  0.75777761  0.09607443  0.60222499    -0.02800
C23         C  0.76964313  0.11398453  0.60165992    -0.00200
C24         C  0.77249941  0.12141194  0.62184824    -0.23100
C25         C  0.76183580  0.10783972  0.63503720    -0.23300
C26         C  0.75325590  0.09221424  0.62259731    -0.00300
H27         H  0.78185189  0.13479038  0.62670120     0.13400
H28         H  0.76063794  0.10921185  0.65185931     0.13500
N29         N  0.74273865  0.96372603  0.50012987    -0.36000
N30         N  0.74513676  0.99568638  0.46774157    -0.56500
N31         N  0.74548338  0.02888099  0.49900123    -0.36000
N32         N  0.74385913  0.99690203  0.53138501    -0.56500
C33         C  0.74737224  0.95154458  0.48335801     0.27600
C34         C  0.74716160  0.95219191  0.51741069     0.27600
C35         C  0.75193003  0.03965814  0.48187932     0.27600
C36         C  0.75107515  0.04039602  0.51591965     0.27600
C37         C  0.74056382  0.97857317  0.45598348     0.36200
C38         C  0.74220648  0.01277779  0.45537598     0.36200
C39         C  0.73993053  0.98012855  0.54387399     0.36200
C40         C  0.74068987  0.01437532  0.54311151     0.36200
C41         C  0.75431436  0.93180643  0.49002076    -0.21300
C42         C  0.75410862  0.93218194  0.51154006    -0.21300
C43         C  0.76149961  0.05840483  0.48796426    -0.21200
C44         C  0.76090442  0.05889750  0.50949261    -0.21200
C45         C  0.73451718  0.98478173  0.43605890    -0.22300
C46         C  0.73544391  0.00653534  0.43570953    -0.22300
C47         C  0.73405100  0.98693344  0.56365437    -0.22300
C48         C  0.73435904  0.00870301  0.56312560    -0.22300
C49         C  0.74454545  0.95753219  0.46224478    -0.17700
C50         C  0.74410674  0.95893768  0.53828535    -0.17700
C51         C  0.74675445  0.03493267  0.53692516    -0.17700
C52         C  0.74818222  0.03353509  0.46094208    -0.17700
H53         H  0.75894825  0.91848480  0.48039211     0.15300
H54         H  0.75855583  0.91917350  0.52168935     0.15300
H55         H  0.76811050  0.07052694  0.47793969     0.15300
H56         H  0.76699014  0.07145168  0.51928380     0.15300
H57         H  0.73056303  0.97466339  0.42298017     0.13500
H58         H  0.73230339  0.01654922  0.42229857     0.13500
H59         H  0.73064819  0.97724504  0.57722399     0.13500
H60         H  0.73141760  0.01912270  0.57625588     0.13500
H61         H  0.73502636  0.97826031  0.49979112     0.26800
H62         H  0.73584443  0.01558583  0.49906104     0.26800
N63         N  0.89215364  0.73136633  0.40388922    -0.02800
C64         C  0.87225495  0.73890966  0.40560259    -0.00200
C65         C  0.86169507  0.73616924  0.38687616    -0.23100
C66         C  0.87566753  0.72655599  0.37330106    -0.23300
C67         C  0.89445507  0.72434386  0.38402556    -0.00300
H68         H  0.84575667  0.74106307  0.38333537     0.13400
H69         H  0.87240997  0.72181003  0.35738160     0.13500
N70         N  0.89456485  0.74478030  0.60202164    -0.02800
C71         C  0.89583423  0.73672749  0.62163229    -0.00200
C72         C  0.87787711  0.74200521  0.63271544    -0.23100
C73         C  0.86518522  0.75348008  0.61923800    -0.23300
C74         C  0.87610252  0.75539924  0.60057803    -0.00300
H75         H  0.87447500  0.73813396  0.64886358     0.13400
H76         H  0.84966334  0.75955531  0.62273375     0.13500
N77         N  0.09938102  0.73952882  0.40280683    -0.02800
C78         C  0.09730383  0.72969296  0.38406761    -0.00200
C79         C  0.11421075  0.73478789  0.37137196    -0.23100
C80         C  0.12714953  0.74789289  0.38291335    -0.23300
C81         C  0.11743406  0.75088123  0.40205808    -0.00300
H82         H  0.11688766  0.72947605  0.35549839     0.13400
H83         H  0.14210861  0.75427687  0.37791862     0.13500
N84         N  0.09527327  0.76316598  0.60449667    -0.02800
C85         C  0.09331731  0.75603727  0.62445435    -0.00200
C86         C  0.11204278  0.75890391  0.63513297    -0.23100
C87         C  0.12587680  0.76818248  0.62127718    -0.23300
C88         C  0.11517331  0.77055327  0.60260663    -0.00300
H89         H  0.11545120  0.75416941  0.65105843     0.13400
H90         H  0.14215501  0.77213305  0.62427275     0.13500
N91         N  0.96471664  0.73927040  0.50241975    -0.36000
N92         N  0.99729816  0.74241034  0.53421164    -0.56500
N93         N  0.02887318  0.74258733  0.50218452    -0.36000
N94         N  0.99624742  0.74049134  0.47014870    -0.56500
C95         C  0.95311838  0.74452472  0.51935060     0.27600
C96         C  0.95257816  0.74264593  0.48536182     0.27600
C97         C  0.04032717  0.74886913  0.51889072     0.27600
C98         C  0.03977332  0.74795537  0.48484729     0.27600
C99         C  0.98050917  0.73845279  0.54646931     0.36200
C100        C  0.01446835  0.73951949  0.54628753     0.36200
C101        C  0.97952652  0.73439625  0.45862952     0.36200
C102        C  0.01348012  0.73662812  0.45843601     0.36200
C103        C  0.93323885  0.75105518  0.51301547    -0.21300
C104        C  0.93291465  0.74990309  0.49152411    -0.21300
C105        C  0.05879316  0.75830004  0.51207637    -0.21200
C106        C  0.05852314  0.75756346  0.49055385    -0.21200
C107        C  0.98697636  0.73292959  0.56647077    -0.22300
C108        C  0.00857385  0.73349727  0.56632761    -0.22300
C109        C  0.98614734  0.72649340  0.43948776    -0.22300
C110        C  0.00773775  0.72806422  0.43930147    -0.22300
C111        C  0.95953066  0.74207911  0.54037818    -0.17700
C112        C  0.95842172  0.73793413  0.46454697    -0.17700
C113        C  0.03403437  0.74260972  0.46418357    -0.17700
C114        C  0.03507061  0.74488752  0.54004447    -0.17700
H115        H  0.92022167  0.75588582  0.52286266     0.15300
H116        H  0.91963516  0.75372695  0.48159556     0.15300
H117        H  0.07135077  0.76466842  0.52159505     0.15300
H118        H  0.07085606  0.76319643  0.48028499     0.15300
H119        H  0.97715444  0.72946787  0.57988508     0.13500
H120        H  0.01873287  0.73052496  0.57961268     0.13500
H121        H  0.97640127  0.72087481  0.42677139     0.13500
H122        H  0.01798875  0.72383400  0.42642727     0.13500
H123        H  0.97912586  0.73145119  0.50265951     0.26800
H124        H  0.01571658  0.73283072  0.50255562     0.26800
N125        N  0.24651383  0.89782400  0.39691164    -0.02800
C126        C  0.23472797  0.87999405  0.39677224    -0.00200
C127        C  0.23578198  0.87046476  0.37734999    -0.23100
C128        C  0.24835394  0.88324213  0.36502383    -0.23300
C129        C  0.25498586  0.89986253  0.37752556    -0.00300
H130        H  0.22841170  0.85576073  0.37272642     0.13400
H131        H  0.25235023  0.88061996  0.34877024     0.13500
N132        N  0.24314837  0.89754368  0.60076943    -0.02800
C133        C  0.23254266  0.87900018  0.59888532    -0.00200
C134        C  0.23563841  0.86676640  0.61662141    -0.23100
C135        C  0.24832336  0.87834578  0.62985556    -0.23300
C136        C  0.25308483  0.89698126  0.61950520    -0.00300
H137        H  0.22945955  0.85107402  0.61954966     0.13400
H138        H  0.25323150  0.87375581  0.64542159     0.13500
N139        N  0.25070343  0.10077816  0.39662030    -0.02800
C140        C  0.24392904  0.12092689  0.39949472    -0.00200
C141        C  0.24817841  0.13304322  0.38201029    -0.23100
C142        C  0.25850728  0.11998770  0.36810532    -0.23300
C143        C  0.25968801  0.10014044  0.37732494    -0.00300
H144        H  0.24452676  0.14964430  0.37974048     0.13400
H145        H  0.26504268  0.12479525  0.35324382     0.13500
N146        N  0.25733864  0.10235431  0.60009238    -0.02800
C147        C  0.24791071  0.12168374  0.59891370    -0.00200
C148        C  0.24762137  0.13110124  0.61845821    -0.23100
C149        C  0.25727055  0.11715911  0.63203918    -0.23300
C150        C  0.26300639  0.09962433  0.62040136    -0.00300
H151        H  0.24045724  0.14611924  0.62252657     0.13400
H152        H  0.25907837  0.11917283  0.64875351     0.13500
N153        N  0.25034517  0.99869679  0.46723609    -0.36000
N154        N  0.25048797  0.03160622  0.49885578    -0.56500
N155        N  0.25164833  0.99939930  0.53093428    -0.36000
N156        N  0.25266595  0.96637490  0.49936152    -0.56500
C157        C  0.25441294  0.01591376  0.45531216     0.27600
C158        C  0.25506167  0.98141956  0.45566578     0.27600
C159        C  0.25650021  0.01689754  0.54215291     0.27600
C160        C  0.25703936  0.98232372  0.54258323     0.27600
C161        C  0.24552381  0.04324457  0.48180150     0.36200
C162        C  0.24597170  0.04368282  0.51571356     0.36200
C163        C  0.24846369  0.95397756  0.48268857     0.36200
C164        C  0.24903839  0.95439349  0.51648665     0.36200
C165        C  0.26175591  0.00949739  0.43586286    -0.21300
C166        C  0.26211406  0.98767795  0.43607179    -0.21300
C167        C  0.26533610  0.01081758  0.56110282    -0.21200
C168        C  0.26538279  0.98897714  0.56149218    -0.21200
C169        C  0.23775484  0.06286471  0.48779878    -0.22300
C170        C  0.23794605  0.06311406  0.50933014    -0.22300
C171        C  0.24250202  0.93390946  0.48920789    -0.22300
C172        C  0.24278081  0.93419258  0.51068357    -0.22300
C173        C  0.25006459  0.03711189  0.46103406    -0.17700
C174        C  0.25106338  0.96027478  0.46167786    -0.17700
C175        C  0.25289659  0.96101662  0.53719254    -0.17700
C176        C  0.25090555  0.03795580  0.53657774    -0.17700
H177        H  0.26595996  0.01947367  0.42272271     0.15300
H178        H  0.26656171  0.97756724  0.42312158     0.15300
H179        H  0.27054230  0.02102558  0.57366048     0.15300
H180        H  0.27067422  0.97912033  0.57434019     0.15300
H181        H  0.23291940  0.07578094  0.47770656     0.13500
H182        H  0.23315235  0.07625087  0.51912550     0.13500
H183        H  0.23850518  0.92045507  0.47951245     0.13500
H184        H  0.23918641  0.92094193  0.52084428     0.13500
H185        H  0.24220987  0.99865708  0.48134254     0.26800
H186        H  0.24248685  0.99904314  0.51746529     0.26800
N187        N  0.39395189  0.89747875  0.24273981    -0.02800
C188        C  0.39582953  0.87754422  0.23504165    -0.00200
C189        C  0.37803165  0.86589513  0.23981168    -0.23100
C190        C  0.36467797  0.87925112  0.25060042    -0.23300
C191        C  0.37488291  0.89848236  0.25221548    -0.00300
H192        H  0.37528044  0.84937534  0.23623033     0.13400
H193        H  0.34946799  0.87521834  0.25706601     0.13500
N194        N  0.59941449  0.89082876  0.25568076    -0.02800
C195        C  0.59926698  0.87228492  0.24491509    -0.00200
C196        C  0.61844771  0.86216010  0.24696133    -0.23100
C197        C  0.63103543  0.87533531  0.25876725    -0.23300
C198        C  0.61901431  0.89290780  0.26389981    -0.00300
H199        H  0.62301861  0.84721368  0.24001208     0.13400
H200        H  0.64746076  0.87279458  0.26247876     0.13500
N201        N  0.40004143  0.09509994  0.24274165    -0.02800
C202        C  0.40009833  0.11424487  0.23289709    -0.00200
C203        C  0.38099952  0.12439965  0.23592998    -0.23100
C204        C  0.36867850  0.11095291  0.24766392    -0.23300
C205        C  0.38068542  0.09312693  0.25160514    -0.00300
H206        H  0.37651395  0.13992267  0.23024357     0.13400
H207        H  0.35271391  0.11386488  0.25282098     0.13500
N208        N  0.59778419  0.09172912  0.24341654    -0.02800
C209        C  0.59612461  0.11011194  0.23257823    -0.00200
C210        C  0.61564391  0.11960718  0.23094157    -0.23100
C211        C  0.62956935  0.10702703  0.24193256    -0.23300
C212        C  0.61807080  0.09025896  0.24980810    -0.00300
H213        H  0.61936147  0.13409869  0.22267444     0.13400
H214        H  0.64622338  0.10984272  0.24401202     0.13500
N215        N  0.46610788  0.99659805  0.26136747    -0.36000
N216        N  0.49775421  0.96325588  0.25516578    -0.56500
N217        N  0.53090132  0.99365043  0.26319154    -0.36000
N218        N  0.50013337  0.04311560  0.26657377    -0.56500
C219        C  0.45323370  0.98061440  0.25584135     0.27600
C220        C  0.45457267  0.01460835  0.26163631     0.27600
C221        C  0.54283298  0.97598557  0.26226088     0.27600
C222        C  0.54354577  0.00990165  0.26846233     0.27600
C223        C  0.48029624  0.95185916  0.25093038     0.36200
C224        C  0.51447240  0.95043895  0.25163331     0.36200
C225        C  0.48222313  0.03672510  0.27621079     0.36200
C226        C  0.51596375  0.03421413  0.27775132     0.36200
C227        C  0.43297751  0.98855480  0.25311981    -0.21300
C228        C  0.43391950  0.01013467  0.25640931    -0.21300
C229        C  0.56347249  0.98125812  0.26747365    -0.21200
C230        C  0.56399863  0.00287851  0.27078260    -0.21200
C231        C  0.48594343  0.93164178  0.24452100    -0.22300
C232        C  0.50751242  0.93083748  0.24467535    -0.22300
C233        C  0.48681495  0.02460221  0.29370380    -0.22300
C234        C  0.50817027  0.02289317  0.29459543    -0.22300
C235        C  0.45924997  0.95922972  0.25257616    -0.17700
C236        C  0.46295042  0.03490476  0.26575217    -0.17700
C237        C  0.53634468  0.03095500  0.26997753    -0.17700
C238        C  0.53587953  0.95566714  0.25560505    -0.17700
H239        H  0.41906640  0.97982478  0.24860834     0.15300
H240        H  0.42091214  0.02118400  0.25523889     0.15300
H241        H  0.57692716  0.97076678  0.26838867     0.15300
H242        H  0.57765578  0.01224946  0.27478481     0.15300
H243        H  0.47562669  0.91882723  0.23996621     0.13500
H244        H  0.51692661  0.91722005  0.24033907     0.13500
H245        H  0.47576633  0.01585538  0.30326994     0.13500
H246        H  0.51700086  0.01285421  0.30519562     0.13500
H247        H  0.48199474  0.99560130  0.26477347     0.26800
H248        H  0.51542880  0.99554690  0.25841905     0.26800
N249        N  0.39682204  0.75250658  0.89789027    -0.02800
C250        C  0.39827192  0.76385382  0.87988259    -0.00200
C251        C  0.37877970  0.76491758  0.87029752    -0.23100
C252        C  0.36474345  0.75485435  0.88339758    -0.23300
C253        C  0.37612843  0.74785621  0.90048922    -0.00300
H254        H  0.37508300  0.77214038  0.85539434     0.13400
H255        H  0.34800577  0.75308753  0.88087308     0.13500
N256        N  0.60203612  0.74907279  0.90008412    -0.02800
C257        C  0.60236432  0.76216278  0.88295536    -0.00200
C258        C  0.62265665  0.76417685  0.87542762    -0.23100
C259        C  0.63523535  0.75155808  0.88755536    -0.23300
C260        C  0.62241440  0.74240202  0.90240630    -0.00300
H261        H  0.62797026  0.77431682  0.86287433     0.13400
H262        H  0.65213393  0.74986251  0.88623855     0.13500
N263        N  0.39144323  0.76505362  0.09373629    -0.02800
C264        C  0.37210501  0.75604353  0.09204917    -0.00200
C265        C  0.36033586  0.76060870  0.10968486    -0.23100
C266        C  0.37310645  0.77216151  0.12289413    -0.23300
C267        C  0.39215460  0.77472287  0.11276523    -0.00300
H268        H  0.34446617  0.75538331  0.11294277     0.13400
H269        H  0.36922249  0.77735432  0.13855805     0.13500
N270        N  0.59817210  0.75214303  0.09703761    -0.02800
C271        C  0.61785092  0.74402808  0.09463229    -0.00200
C272        C  0.62939079  0.74713645  0.11270421    -0.23100
C273        C  0.61658082  0.75797904  0.12642607    -0.23300
C274        C  0.59765570  0.76123634  0.11625332    -0.00300
H275        H  0.64529453  0.74177153  0.11569821     0.13400
H276        H  0.62050417  0.76244379  0.14228056     0.13500
N277        N  0.52701382  0.74973614  0.99797897    -0.36000
N278        N  0.49662446  0.74122201  0.96625471    -0.56500
N279        N  0.46369032  0.73996309  0.99841820    -0.36000
N280        N  0.49499923  0.75261967  0.03039071    -0.56500
C281        C  0.53716840  0.75527434  0.98025648     0.27600
C282        C  0.53694933  0.75908690  0.01416190     0.27600
C283        C  0.45172278  0.73845956  0.98104180     0.27600
C284        C  0.45073039  0.74379343  0.01479753     0.27600
C285        C  0.51445070  0.73565644  0.95618018     0.36200
C286        C  0.48056680  0.73235237  0.95572433     0.36200
C287        C  0.51250440  0.74677747  0.04081787     0.36200
C288        C  0.47876731  0.74345783  0.04042801     0.36200
C289        C  0.55317162  0.76936313  0.98515918    -0.21300
C290        C  0.55344671  0.77124680  0.00671687    -0.21300
C291        C  0.43069994  0.73962232  0.98651153    -0.21200
C292        C  0.43002086  0.74236133  0.00784282    -0.21200
C293        C  0.50960786  0.72239825  0.93952860    -0.22300
C294        C  0.48800687  0.72105539  0.93875281    -0.22300
C295        C  0.50738836  0.73382656  0.05761178    -0.22300
C296        C  0.48590868  0.73102315  0.05676258    -0.22300
C297        C  0.53432804  0.74465697  0.96090374    -0.17700
C298        C  0.53262152  0.75406939  0.03521849    -0.17700
C299        C  0.45770766  0.74799899  0.03562453    -0.17700
C300        C  0.45927846  0.73592251  0.96041425    -0.17700
H301        H  0.56438745  0.77638976  0.97448273     0.15300
H302        H  0.56485017  0.77998191  0.01579711     0.15300
H303        H  0.41724037  0.73794628  0.97630067     0.15300
H304        H  0.41571280  0.74249148  0.01698166     0.15300
H305        H  0.52035959  0.71482845  0.92874321     0.13500
H306        H  0.47885589  0.71240793  0.92734081     0.13500
H307        H  0.51786028  0.72677810  0.06899747     0.13500
H308        H  0.47651499  0.72133288  0.06713296     0.13500
H309        H  0.51626856  0.73735812  0.99942522     0.26800
H310        H  0.47990488  0.73857047  0.99907979     0.26800
N311        N  0.39527371  0.89295753  0.74983505    -0.02800
C312        C  0.39789879  0.87371232  0.75908698    -0.00200
C313        C  0.37864501  0.86356802  0.76041071    -0.23100
C314        C  0.36388392  0.87698629  0.75164335    -0.23300
C315        C  0.37446201  0.89513183  0.74570136    -0.00300
H316        H  0.37548101  0.84832785  0.76746405     0.13400
H317        H  0.34728854  0.87375359  0.74979312     0.13500
N318        N  0.59652621  0.89503844  0.74090568    -0.02800
C319        C  0.59666603  0.87710568  0.75256316    -0.00200
C320        C  0.61554127  0.86651806  0.74969610    -0.23100
C321        C  0.62757949  0.87889356  0.73645096    -0.23300
C322        C  0.61545934  0.89636567  0.73121499    -0.00300
H323        H  0.62015166  0.85149718  0.75647232     0.13400
H324        H  0.64357180  0.87571614  0.73153353     0.13500
N325        N  0.39212265  0.09777404  0.75050208    -0.02800
C326        C  0.39378856  0.11758776  0.75844741    -0.00200
C327        C  0.37430115  0.12736374  0.75850298    -0.23100
C328        C  0.36014439  0.11277257  0.75071684    -0.23300
C329        C  0.37148014  0.09456916  0.74632837    -0.00300
H330        H  0.37076167  0.14328660  0.76371461     0.13400
H331        H  0.34347862  0.11526846  0.74825331     0.13500
N332        N  0.59348266  0.10300184  0.73013260    -0.02800
C333        C  0.59285339  0.12244122  0.73920858    -0.00200
C334        C  0.61062801  0.13378447  0.73376275    -0.23100
C335        C  0.62302087  0.12047248  0.72186007    -0.23300
C336        C  0.61216686  0.10162964  0.71990419    -0.00300
H337        H  0.61436676  0.14988315  0.73817419     0.13400
H338        H  0.63861830  0.12386813  0.71597098     0.13500
N339        N  0.49514565  0.96489320  0.74039678    -0.36000
N340        N  0.52734910  0.99774436  0.73960034    -0.56500
N341        N  0.49502274  0.02970121  0.73957639    -0.36000
N342        N  0.46298287  0.99690606  0.74132773    -0.56500
C343        C  0.51253578  0.95358073  0.74522777     0.27600
C344        C  0.47831341  0.95313737  0.74607109     0.27600
C345        C  0.51220595  0.04159593  0.74367859     0.27600
C346        C  0.47797444  0.04118366  0.74521712     0.27600
C347        C  0.53914705  0.98052526  0.73524484     0.36200
C348        C  0.53911156  0.01477907  0.73453957     0.36200
C349        C  0.45087481  0.97973260  0.73782779     0.36200
C350        C  0.45081613  0.01402349  0.73757923     0.36200
C351        C  0.50672704  0.93425602  0.75384691    -0.21300
C352        C  0.48508039  0.93399615  0.75442076    -0.21300
C353        C  0.50601535  0.06100163  0.75179199    -0.21200
C354        C  0.48437317  0.06072505  0.75282171    -0.21200
C355        C  0.55855469  0.98659410  0.72735008    -0.22300
C356        C  0.55848867  0.00838643  0.72680276    -0.22300
C357        C  0.43090683  0.98592383  0.73155543    -0.22300
C358        C  0.43083426  0.00773505  0.73150269    -0.22300
C359        C  0.53338285  0.95964633  0.74053609    -0.17700
C360        C  0.45706563  0.95881967  0.74269388    -0.17700
C361        C  0.45682224  0.03499011  0.74226729    -0.17700
C362        C  0.53315578  0.03587095  0.73880608    -0.17700
H363        H  0.51700934  0.92156161  0.75896216     0.15300
H364        H  0.47543503  0.92110095  0.76012378     0.15300
H365        H  0.51604047  0.07406969  0.75628766     0.15300
H366        H  0.47446903  0.07357433  0.75825002     0.15300
H367        H  0.57157312  0.97640435  0.72301835     0.13500
H368        H  0.57143377  0.01837740  0.72196622     0.13500
H369        H  0.41759093  0.97580405  0.72824822     0.13500
H370        H  0.41743922  0.01780482  0.72812969     0.13500
H371        H  0.49482539  0.97868995  0.73148907     0.26800
H372        H  0.49479640  0.01566207  0.73108748     0.26800
N373        N  0.39689772  0.25089185  0.88779417    -0.02800
C374        C  0.37841506  0.26151971  0.88937360    -0.00200
C375        C  0.36797403  0.26103044  0.87041040    -0.23100
C376        C  0.38094928  0.25041958  0.85656502    -0.23300
C377        C  0.39887176  0.24484151  0.86757722    -0.00300
H378        H  0.35273724  0.26787042  0.86694668     0.13400
H379        H  0.37766744  0.24727123  0.84026252     0.13500
N380        N  0.60071365  0.24742440  0.88640387    -0.02800
C381        C  0.61923793  0.25797717  0.88827129    -0.00200
C382        C  0.62882628  0.25943766  0.86884897    -0.23100
C383        C  0.61595242  0.24914170  0.85477390    -0.23300
C384        C  0.59887930  0.24174976  0.86600639    -0.00300
H385        H  0.64363818  0.26706867  0.86532464     0.13400
H386        H  0.61867084  0.24734814  0.83815467     0.13500
N387        N  0.39914391  0.24307682  0.08984742    -0.02800
C388        C  0.37930645  0.25057580  0.08755529    -0.00200
C389        C  0.36894667  0.24992730  0.10657968    -0.23100
C390        C  0.38300014  0.24160777  0.12093039    -0.23300
C391        C  0.40162777  0.23800264  0.11027621    -0.00300
H392        H  0.35304425  0.25519595  0.10973022     0.13400
H393        H  0.37978784  0.23828151  0.13722083     0.13500
N394        N  0.60171003  0.24049022  0.08846072    -0.02800
C395        C  0.62091681  0.24975151  0.08774167    -0.00200
C396        C  0.63151801  0.24597668  0.10628224    -0.23100
C397        C  0.61798752  0.23467101  0.11900575    -0.23300
C398        C  0.59957898  0.23189279  0.10782012    -0.00300
H399        H  0.64731892  0.25090878  0.11019313     0.13400
H400        H  0.62109213  0.22939724  0.13482631     0.13500
N401        N  0.46740938  0.24544300  0.98825639    -0.36000
N402        N  0.49894204  0.24482639  0.95592562    -0.56500
N403        N  0.53164406  0.24303069  0.98741718    -0.36000
N404        N  0.50004058  0.24448449  0.01984001    -0.56500
C405        C  0.45580648  0.25105619  0.97143025     0.27600
C406        C  0.45642729  0.25117737  0.00542791     0.27600
C407        C  0.54300330  0.24822133  0.97028558     0.27600
C408        C  0.54365869  0.24722156  0.00434923     0.27600
C409        C  0.48169830  0.24110628  0.94422756     0.36200
C410        C  0.51567706  0.24040921  0.94372946     0.36200
C411        C  0.48302848  0.24099634  0.03195747     0.36200
C412        C  0.51697065  0.23933229  0.03151303     0.36200
C413        C  0.43714751  0.26039353  0.97795763    -0.21300
C414        C  0.43753685  0.26046097  0.99949268    -0.21300
C415        C  0.56260342  0.25562732  0.97638524    -0.21200
C416        C  0.56304505  0.25491282  0.99793160    -0.21200
C417        C  0.48745388  0.23416210  0.92446307    -0.22300
C418        C  0.50907950  0.23365089  0.92416410    -0.22300
C419        C  0.48913724  0.23357862  0.05147065    -0.22300
C420        C  0.51072928  0.23251436  0.05118492    -0.22300
C421        C  0.46113063  0.24660986  0.95045876    -0.17700
C422        C  0.46232387  0.24654718  0.02621287    -0.17700
C423        C  0.53790152  0.24303561  0.02530797    -0.17700
C424        C  0.53661819  0.24489419  0.94935533    -0.17700
H425        H  0.42445958  0.26626231  0.96823135     0.15300
H426        H  0.42519548  0.26635689  0.00963118     0.15300
H427        H  0.57536200  0.26071787  0.96635194     0.15300
H428        H  0.57618159  0.25939154  0.00774012     0.15300
H429        H  0.47718045  0.23056247  0.91144385     0.13500
H430        H  0.51882926  0.22961331  0.91085229     0.13500
H431        H  0.47913306  0.22986249  0.06467961     0.13500
H432        H  0.52071378  0.22790100  0.06414208     0.13500
H433        H  0.48074115  0.23585401  0.98808110     0.26800
H434        H  0.51751774  0.23476519  0.98749199     0.26800
N435        N  0.25373728  0.40001703  0.89194862    -0.02800
C436        C  0.26354325  0.38098866  0.89286066    -0.00200
C437        C  0.26088408  0.37038536  0.87409402    -0.23100
C438        C  0.24985780  0.38387271  0.86101135    -0.23300
C439        C  0.24594419  0.40206048  0.87237125    -0.00300
H440        H  0.26596127  0.35445992  0.87038296     0.13400
H441        H  0.24515251  0.38072745  0.84504948     0.13500
N442        N  0.25541104  0.60068541  0.89315255    -0.02800
C443        C  0.26767268  0.61815179  0.89365701    -0.00200
C444        C  0.26893900  0.62700982  0.87391600    -0.23100
C445        C  0.25739264  0.61407061  0.86078190    -0.23300
C446        C  0.24902580  0.59804075  0.87307881    -0.00300
H447        H  0.27722749  0.64131047  0.86956987     0.13400
H448        H  0.25522924  0.61623507  0.84412794     0.13500
N449        N  0.25212372  0.39694490  0.09506371    -0.02800
C450        C  0.26098417  0.37736846  0.09402495    -0.00200
C451        C  0.26029631  0.36796664  0.11360028    -0.23100
C452        C  0.25053906  0.38218505  0.12686049    -0.23300
C453        C  0.24614124  0.40008877  0.11515050    -0.00300
H454        H  0.26675734  0.35277081  0.11806702     0.13400
H455        H  0.24716064  0.37969432  0.14326603     0.13500
N456        N  0.24959991  0.60038602  0.09834131    -0.02800
C457        C  0.25864714  0.61980009  0.09691642    -0.00200
C458        C  0.25401073  0.63144890  0.11467789    -0.23100
C459        C  0.24195470  0.61863509  0.12743158    -0.23300
C460        C  0.23913312  0.59976700  0.11682803    -0.00300
H461        H  0.25881579  0.64754101  0.11797364     0.13400
H462        H  0.23616715  0.62261951  0.14284823     0.13500
N463        N  0.24999280  0.46781731  0.99428725    -0.36000
N464        N  0.24877053  0.49960567  0.02703603    -0.56500
N465        N  0.24581624  0.53259391  0.99579453    -0.36000
N466        N  0.24792316  0.50072631  0.96318354    -0.56500
C467        C  0.25561101  0.45604109  0.01103591     0.27600
C468        C  0.25525305  0.45668477  0.97700523     0.27600
C469        C  0.25025024  0.54413589  0.01301748     0.27600
C470        C  0.25037246  0.54475687  0.97899946     0.27600
C471        C  0.24577691  0.48196282  0.03858816     0.36200
C472        C  0.24389705  0.51615993  0.03949124     0.36200
C473        C  0.24527148  0.48378121  0.95065268     0.36200
C474        C  0.24332489  0.51792224  0.95153186     0.36200
C475        C  0.26435191  0.43704094  0.00436535    -0.21300
C476        C  0.26406219  0.43742025  0.98283176    -0.21300
C477        C  0.25732051  0.56405345  0.00714093    -0.21200
C478        C  0.25741861  0.56443991  0.98561267    -0.21200
C479        C  0.23884199  0.48731255  0.05848871    -0.22300
C480        C  0.23787434  0.50905688  0.05912422    -0.22300
C481        C  0.23879326  0.49019518  0.93091220    -0.22300
C482        C  0.23758824  0.51191983  0.93146563    -0.22300
C483        C  0.25149002  0.46137665  0.03208387    -0.17700
C484        C  0.25100146  0.46295810  0.95621087    -0.17700
C485        C  0.24731497  0.53885130  0.95792335    -0.17700
C486        C  0.24662624  0.53756353  0.03380688    -0.17700
H487        H  0.27003856  0.42411920  0.01400779     0.15300
H488        H  0.26949396  0.42485272  0.97263995     0.15300
H489        H  0.26171952  0.57702829  0.01729235     0.15300
H490        H  0.26197684  0.57775986  0.97594253     0.15300
H491        H  0.23558238  0.47669576  0.07140566     0.13500
H492        H  0.23356591  0.51855425  0.07256161     0.13500
H493        H  0.23604753  0.48033489  0.91734107     0.13500
H494        H  0.23376703  0.52217275  0.91840783     0.13500
H495        H  0.24074939  0.48141310  0.99468505     0.26800
H496        H  0.23795163  0.51817270  0.99553420     0.26800
N497        N  0.90505935  0.39784986  0.75261004    -0.02800
C498        C  0.88544756  0.40035987  0.76056134    -0.00200
C499        C  0.87327629  0.38283981  0.75606849    -0.23100
C500        C  0.88586809  0.36906222  0.74496253    -0.23300
C501        C  0.90537951  0.37859188  0.74312188    -0.00300
H502        H  0.85677036  0.38074696  0.75965257     0.13400
H503        H  0.88110018  0.35404170  0.73837232     0.13500
N504        N  0.89775028  0.60704205  0.75169684    -0.02800
C505        C  0.87834051  0.60580014  0.76040685    -0.00200
C506        C  0.86690955  0.62384819  0.75554358    -0.23100
C507        C  0.87997369  0.63667094  0.74380231    -0.23300
C508        C  0.89867622  0.62569962  0.74126988    -0.00300
H509        H  0.85084326  0.62730143  0.76002630     0.13400
H510        H  0.87626223  0.65237693  0.73808569     0.13500
N511        N  0.10466594  0.40686203  0.73683672    -0.02800
C512        C  0.10300581  0.38839459  0.72617731    -0.00200
C513        C  0.12129617  0.37670198  0.72862263    -0.23100
C514        C  0.13455725  0.38856409  0.74109885    -0.23300
C515        C  0.12369111  0.40684322  0.74630033    -0.00300
H516        H  0.12449555  0.36110939  0.72233194     0.13400
H517        H  0.15034339  0.38425279  0.74578887     0.13500
N518        N  0.10339628  0.60724367  0.74871437    -0.02800
C519        C  0.10278548  0.62712100  0.74077611    -0.00200
C520        C  0.12239217  0.63640987  0.74211561    -0.23100
C521        C  0.13563194  0.62137349  0.75075460    -0.23300
C522        C  0.12364637  0.60340514  0.75412966    -0.00300
H523        H  0.12668099  0.65216495  0.73698189     0.13400
H524        H  0.15218333  0.62333667  0.75417822     0.13500
N525        N  0.96861450  0.50429750  0.74561645    -0.36000
N526        N  0.00210324  0.47344934  0.74526936    -0.56500
N527        N  0.03256354  0.50736613  0.74697583    -0.36000
N528        N  0.99932805  0.53838726  0.74842511    -0.56500
C529        C  0.95798957  0.48621293  0.74980161     0.27600
C530        C  0.95635364  0.52067652  0.75177223     0.27600
C531        C  0.04498199  0.49048956  0.75120652     0.27600
C532        C  0.04350267  0.52491548  0.75210957     0.27600
C533        C  0.98591812  0.46102219  0.73944950     0.36200
C534        C  0.01978327  0.46250036  0.74087768     0.36200
C535        C  0.98169203  0.54995055  0.74545145     0.36200
C536        C  0.01570645  0.55158067  0.74506620     0.36200
C537        C  0.93873794  0.49118035  0.75880823    -0.21300
C538        C  0.93761356  0.51297476  0.75984963    -0.21300
C539        C  0.06411010  0.49737120  0.75908678    -0.21200
C540        C  0.06311856  0.51914921  0.75981573    -0.21200
C541        C  0.99334609  0.44211479  0.73117467    -0.22300
C542        C  0.01487807  0.44297804  0.73225979    -0.22300
C543        C  0.98686541  0.57071210  0.74048650    -0.22300
C544        C  0.00846514  0.57170749  0.74011743    -0.22300
C545        C  0.96469704  0.46558481  0.74403432    -0.17700
C546        C  0.96106252  0.54233182  0.74867111    -0.17700
C547        C  0.03702845  0.54590343  0.74785737    -0.17700
C548        C  0.04015126  0.46929904  0.74613928    -0.17700
H549        H  0.92656815  0.48028127  0.76370731     0.15300
H550        H  0.92441502  0.52211274  0.76566117     0.15300
H551        H  0.07757066  0.48774193  0.76334362     0.15300
H552        H  0.07568131  0.52958101  0.76470896     0.15300
H553        H  0.98420376  0.42885320  0.72551920     0.13500
H554        H  0.02565216  0.43054484  0.72756651     0.13500
H555        H  0.97620285  0.58380713  0.73761712     0.13500
H556        H  0.01774873  0.58570232  0.73692405     0.13500
H557        H  0.98224020  0.50552250  0.73667382     0.26800
H558        H  0.01875466  0.50707525  0.73828020     0.26800
N559        N  0.75266093  0.39497774  0.89087872    -0.02800
C560        C  0.76071846  0.39669051  0.87129072    -0.00200
C561        C  0.75986375  0.37718986  0.86143271    -0.23100
C562        C  0.75065068  0.36325944  0.87539443    -0.23300
C563        C  0.74675286  0.37453738  0.89354644    -0.00300
H564        H  0.76522969  0.37353060  0.84577498     0.13400
H565        H  0.74693128  0.34681732  0.87243962     0.13500
N566        N  0.74322087  0.59577895  0.89565853    -0.02800
C567        C  0.73424954  0.61500753  0.89888281    -0.00200
C568        C  0.73376302  0.62622035  0.88028830    -0.23100
C569        C  0.74348222  0.61374291  0.86542926    -0.23300
C570        C  0.74895157  0.59493022  0.87518536    -0.00300
H571        H  0.72724488  0.64185220  0.87773564     0.13400
H572        H  0.74695582  0.61845489  0.84954894     0.13500
N573        N  0.75203463  0.38982824  0.09414563    -0.02800
C574        C  0.74391651  0.37008507  0.09148107    -0.00200
C575        C  0.74441046  0.35936198  0.11037448    -0.23100
C576        C  0.75328819  0.37286097  0.12485436    -0.23300
C577        C  0.75730537  0.39180028  0.11465875    -0.00300
H578        H  0.73873617  0.34353024  0.11346316     0.13400
H579        H  0.75669951  0.36895536  0.14095293     0.13500
N580        N  0.73944208  0.58738493  0.10111775    -0.02800
C581        C  0.72885970  0.60600936  0.09932775    -0.00200
C582        C  0.73137528  0.61788925  0.11734314    -0.23100
C583        C  0.74369314  0.60602489  0.13074387    -0.23300
C584        C  0.74839211  0.58741684  0.12036555    -0.00300
H585        H  0.72515172  0.63358647  0.12027898     0.13400
H586        H  0.74870027  0.61047467  0.14630496     0.13500
N587        N  0.76234308  0.52646123  0.99592266    -0.36000
N588        N  0.75763942  0.49269581  0.02655014    -0.56500
N589        N  0.75725054  0.46165549  0.99378155    -0.36000
N590        N  0.76151772  0.49497828  0.96308176    -0.56500
C591        C  0.75605219  0.53734871  0.01302903     0.27600
C592        C  0.75762544  0.53852966  0.97905162     0.27600
C593        C  0.75001293  0.45000644  0.01001143     0.27600
C594        C  0.75206595  0.45129029  0.97606074     0.27600
C595        C  0.76160260  0.50910905  0.03941823     0.36200
C596        C  0.75930919  0.47498563  0.03830031     0.36200
C597        C  0.76635055  0.51227090  0.95162742     0.36200
C598        C  0.76448376  0.47807196  0.95050663     0.36200
C599        C  0.74765152  0.55673254  0.00704092    -0.21300
C600        C  0.74846880  0.55740409  0.98554817    -0.21300
C601        C  0.74010095  0.43198359  0.00256130    -0.21200
C602        C  0.74131652  0.43283361  0.98105611    -0.21200
C603        C  0.76584966  0.50183988  0.05946185    -0.22300
C604        C  0.76463640  0.48014271  0.05870252    -0.22300
C605        C  0.77258840  0.50635700  0.93168025    -0.22300
C606        C  0.77152110  0.48461350  0.93099851    -0.22300
C607        C  0.75844525  0.53048437  0.03390880    -0.17700
C608        C  0.76211659  0.53322302  0.95803958    -0.17700
C609        C  0.75850606  0.45720285  0.95572769    -0.17700
C610        C  0.75352762  0.45461951  0.03132636    -0.17700
H611        H  0.74151108  0.56908323  0.01709390     0.15300
H612        H  0.74311269  0.57040752  0.97583140     0.15300
H613        H  0.73300758  0.41941443  0.01168116     0.15300
H614        H  0.73545777  0.42096110  0.97033911     0.15300
H615        H  0.76886817  0.51122665  0.07329907     0.13500
H616        H  0.76659876  0.46948794  0.07184953     0.13500
H617        H  0.77673648  0.51668555  0.91878776     0.13500
H618        H  0.77473897  0.47482740  0.91746314     0.13500
H619        H  0.77105600  0.51246162  0.99591692     0.26800
H620        H  0.76753652  0.47441498  0.99479738     0.26800
N621        N  0.89628383  0.39280363  0.25124902    -0.02800
C622        C  0.87533372  0.39379602  0.24653480    -0.00200
C623        C  0.86455382  0.37779446  0.25660138    -0.23100
C624        C  0.87893603  0.36718397  0.26872560    -0.23300
C625        C  0.89821561  0.37682117  0.26560340    -0.00300
H626        H  0.84796490  0.37424068  0.25537453     0.13400
H627        H  0.87571578  0.35371462  0.27872082     0.13500
N628        N  0.89717740  0.58816502  0.25518582    -0.02800
C629        C  0.87838755  0.58795813  0.24507943    -0.00200
C630        C  0.86866921  0.60749460  0.24730632    -0.23100
C631        C  0.88236200  0.62028497  0.25829096    -0.23300
C632        C  0.89993427  0.60812652  0.26260332    -0.00300
H633        H  0.85324990  0.61200114  0.24167030     0.13400
H634        H  0.87980426  0.63666715  0.26260489     0.13500
N635        N  0.10655984  0.39427491  0.24741378    -0.02800
C636        C  0.10602033  0.37719011  0.26056243    -0.00200
C637        C  0.12543866  0.36724674  0.26092046    -0.23100
C638        C  0.13855934  0.37878775  0.24825116    -0.23300
C639        C  0.12688159  0.39558263  0.24063618    -0.00300
H640        H  0.12958794  0.35302546  0.26947888     0.13400
H641        H  0.15494051  0.37536876  0.24509663     0.13500
N642        N  0.10094021  0.58682794  0.26066162    -0.02800
C643        C  0.09919671  0.60645465  0.26918253    -0.00200
C644        C  0.11657301  0.61846065  0.26393340    -0.23100
C645        C  0.12967694  0.60556704  0.25239257    -0.23300
C646        C  0.11987089  0.58608681  0.25073873    -0.00300
H647        H  0.11909500  0.63505637  0.26725581     0.13400
H648        H  0.14446176  0.61013711  0.24532035     0.13500
N649        N  0.96850232  0.48860820  0.25387727    -0.36000
N650        N  0.00022294  0.45729057  0.24582336    -0.56500
N651        N  0.03051436  0.48845263  0.25795579    -0.36000
N652        N  0.99878758  0.51953505  0.26742320    -0.56500
C653        C  0.95834623  0.46992492  0.25570861     0.27600
C654        C  0.95710198  0.50320194  0.26432688     0.27600
C655        C  0.04137071  0.47003792  0.25869373     0.27600
C656        C  0.04096010  0.50255961  0.26989209     0.27600
C657        C  0.98352552  0.44903165  0.23576025     0.36200
C658        C  0.01763721  0.44968964  0.23642517     0.36200
C659        C  0.98210297  0.53239036  0.26444778     0.36200
C660        C  0.01587454  0.53208021  0.26757536     0.36200
C661        C  0.94109096  0.47247994  0.26883168    -0.21300
C662        C  0.93983622  0.49377196  0.27357906    -0.21300
C663        C  0.05823148  0.47216217  0.27234307    -0.21200
C664        C  0.05837642  0.49298057  0.27883658    -0.21200
C665        C  0.99027903  0.43636165  0.21937390    -0.22300
C666        C  0.01202130  0.43684684  0.21974047    -0.22300
C667        C  0.98843755  0.55337062  0.26349935    -0.22300
C668        C  0.01001858  0.55317351  0.26546696    -0.22300
C669        C  0.96269075  0.45215849  0.24281544    -0.17700
C670        C  0.96130969  0.52499910  0.26360108    -0.17700
C671        C  0.03649912  0.52437869  0.27016736    -0.17700
C672        C  0.03804203  0.45306488  0.24456995    -0.17700
H673        H  0.92983304  0.46054304  0.27350294     0.15300
H674        H  0.92761439  0.50139497  0.28266194     0.15300
H675        H  0.06999034  0.46036946  0.27621554     0.15300
H676        H  0.07020811  0.50032065  0.28856679     0.15300
H677        H  0.98062876  0.42769731  0.20839069     0.13500
H678        H  0.02242850  0.42853046  0.20913665     0.13500
H679        H  0.97857860  0.56726132  0.26162052     0.13500
H680        H  0.02019108  0.56690446  0.26540678     0.13500
H681        H  0.98065269  0.49202617  0.24341485     0.26800
H682        H  0.01875902  0.49222096  0.24717767     0.26800
N683        N  0.90729365  0.23969932  0.39628924    -0.02800
C684        C  0.90728802  0.25059809  0.37795010    -0.00200
C685        C  0.88820724  0.24802239  0.36788466    -0.23100
C686        C  0.87574417  0.23597269  0.38094589    -0.23300
C687        C  0.88767342  0.23147215  0.39847270    -0.00300
H688        H  0.88374080  0.25429372  0.35276381     0.13400
H689        H  0.85954306  0.23152112  0.37824195     0.13500
N690        N  0.90790686  0.23639371  0.60234819    -0.02800
C691        C  0.90853042  0.24623165  0.62124135    -0.00200
C692        C  0.88941722  0.24396281  0.63130135    -0.23100
C693        C  0.87664595  0.23237084  0.61812197    -0.23300
C694        C  0.88840944  0.22777979  0.60044803    -0.00300
H695        H  0.88502658  0.25057984  0.64629464     0.13400
H696        H  0.86037854  0.22819107  0.62089423     0.13500
N697        N  0.10617773  0.24864664  0.39557901    -0.02800
C698        C  0.12277999  0.23481128  0.39645145    -0.00200
C699        C  0.13289334  0.23399092  0.37729830    -0.23100
C700        C  0.12211478  0.24713799  0.36401047    -0.23300
C701        C  0.10584073  0.25590110  0.37541630    -0.00300
H702        H  0.14663929  0.22463709  0.37338877     0.13400
H703        H  0.12536895  0.24956233  0.34755748     0.13500
N704        N  0.10461206  0.24960907  0.59821110    -0.02800
C705        C  0.12232701  0.23770637  0.59886370    -0.00200
C706        C  0.13018314  0.23714728  0.61903964    -0.23100
C707        C  0.11624380  0.24847742  0.63130180    -0.23300
C708        C  0.10050114  0.25559564  0.61812006    -0.00300
H709        H  0.14440309  0.22936156  0.62431849     0.13400
H710        H  0.11729212  0.25095840  0.64801657     0.13500
N711        N  0.97443843  0.24297665  0.49927125    -0.36000
N712        N  0.00514901  0.25619512  0.53028624    -0.56500
N713        N  0.03685962  0.25771184  0.49767906    -0.36000
N714        N  0.00619442  0.24726068  0.46685856    -0.56500
C715        C  0.96173002  0.24660410  0.51580600     0.27600
C716        C  0.96219591  0.24289365  0.48197648     0.27600
C717        C  0.04650144  0.26735753  0.51380855     0.27600
C718        C  0.04621494  0.26452418  0.47991408     0.27600
C719        C  0.98931932  0.25045394  0.54316902     0.36200
C720        C  0.02250267  0.25753053  0.54238411     0.36200
C721        C  0.99084965  0.23698243  0.45652907     0.36200
C722        C  0.02421304  0.24368641  0.45626339     0.36200
C723        C  0.94103004  0.24814629  0.50909074    -0.21300
C724        C  0.94132351  0.24584968  0.48767834    -0.21300
C725        C  0.06204762  0.28072745  0.50639375    -0.21200
C726        C  0.06136679  0.27951248  0.48487748    -0.21200
C727        C  0.99644488  0.24904437  0.56363815    -0.22300
C728        C  0.01754548  0.25349136  0.56313142    -0.22300
C729        C  0.99906106  0.22665550  0.43925181    -0.22300
C730        C  0.02040295  0.23027640  0.43952259    -0.22300
C731        C  0.96826976  0.24752189  0.53686751    -0.17700
C732        C  0.96938102  0.23915483  0.46138411    -0.17700
C733        C  0.04286299  0.25529577  0.45999860    -0.17700
C734        C  0.04279432  0.26227918  0.53486899    -0.17700
H735        H  0.92717110  0.25068177  0.51862190     0.15300
H736        H  0.92771071  0.24614048  0.47750495     0.15300
H737        H  0.07276715  0.29034598  0.51541076     0.15300
H738        H  0.07150307  0.28805608  0.47421125     0.15300
H739        H  0.98741284  0.24510766  0.57746508     0.13500
H740        H  0.02805759  0.25364808  0.57645259     0.13500
H741        H  0.99062868  0.21755344  0.42765196     0.13500
H742        H  0.03160703  0.22450852  0.42811464     0.13500
H743        H  0.99026267  0.23888264  0.50001475     0.26800
H744        H  0.02679457  0.24477527  0.49910308     0.26800
O745        O  0.02411428  0.32204595  0.29202229    -0.73800
O746        O  0.98284072  0.29048763  0.32254539    -0.73800
O747        O  0.98144685  0.32173480  0.29361743    -0.73900
O748        O  0.02543065  0.29097471  0.32065093    -0.73900
O749        O  0.02641166  0.31484974  0.34605428    -0.73900
O750        O  0.98172147  0.34605432  0.31865863    -0.73800
O751        O  0.98326338  0.31468107  0.34785064    -0.73800
O752        O  0.02532906  0.34620026  0.31716775    -0.73900
Ni753      Ni  0.00338517  0.30555347  0.30634152     1.25400
Ni754      Ni  0.00417384  0.33139827  0.33334177     1.25400
C755        C  0.03248827  0.33860872  0.29992017     0.88400
C756        C  0.97623430  0.29725557  0.34024457     0.88300
C757        C  0.97361373  0.33841221  0.30186381     0.88400
C758        C  0.03363053  0.29786369  0.33754320     0.88500
O759        O  0.83329439  0.19674054  0.47684332    -0.73800
O760        O  0.80249068  0.16853440  0.52047952    -0.73800
O761        O  0.83377160  0.19765789  0.51955935    -0.73900
O762        O  0.80207650  0.16760191  0.47777855    -0.73900
O763        O  0.82583505  0.14180673  0.47785918    -0.73900
O764        O  0.85741520  0.17150465  0.51995212    -0.73800
O765        O  0.82622068  0.14262378  0.52051318    -0.73800
O766        O  0.85710485  0.17083103  0.47712039    -0.73900
Ni767      Ni  0.81707177  0.18356399  0.49864654     1.25400
Ni768      Ni  0.84249263  0.15580076  0.49885998     1.25400
C769        C  0.85003727  0.18819421  0.46942385     0.88400
C770        C  0.80938803  0.15092769  0.52788481     0.88300
C771        C  0.85058543  0.18926648  0.52696778     0.88400
C772        C  0.80880633  0.14982720  0.47058560     0.88500
O773        O  0.20759939  0.17286508  0.47826607    -0.73800
O774        O  0.17767798  0.20412628  0.51997022    -0.73800
O775        O  0.20778526  0.17398484  0.52073403    -0.73900
O776        O  0.17754354  0.20287225  0.47759798    -0.73900
O777        O  0.15320220  0.17773401  0.47737007    -0.73900
O778        O  0.18301707  0.14932118  0.52204719    -0.73800
O779        O  0.15267418  0.17950421  0.52029855    -0.73800
O780        O  0.18339530  0.14757094  0.47936747    -0.73900
Ni781      Ni  0.19348502  0.18932053  0.49913869     1.25400
Ni782      Ni  0.16714786  0.16263605  0.49983511     1.25400
C783        C  0.20022438  0.15528992  0.47147103     0.88400
C784        C  0.16034267  0.19693562  0.52717600     0.88300
C785        C  0.20037051  0.15699563  0.52887779     0.88400
C786        C  0.16100860  0.19476289  0.46956485     0.88500
O787        O  0.82041904  0.51155401  0.20633482    -0.73800
O788        O  0.79085570  0.47014297  0.17301522    -0.73800
O789        O  0.81972722  0.46855634  0.20413361    -0.73900
O790        O  0.79107560  0.51317191  0.17518686    -0.73900
O791        O  0.81646427  0.51411341  0.15123590    -0.73900
O792        O  0.84557599  0.46947733  0.18075846    -0.73800
O793        O  0.81654783  0.47090190  0.14958010    -0.73800
O794        O  0.84577708  0.51269937  0.18232988    -0.73900
Ni795      Ni  0.80462476  0.49086658  0.19049314     1.25400
Ni796      Ni  0.83200164  0.49185224  0.16514032     1.25400
C797        C  0.83805845  0.51893372  0.19982568     0.88400
C798        C  0.79894338  0.46335421  0.15583213     0.88300
C799        C  0.83729875  0.46142423  0.19724296     0.88400
C800        C  0.79887253  0.52099262  0.15838271     0.88500
O801        O  0.17862469  0.47393333  0.20004721    -0.73800
O802        O  0.20565417  0.52004652  0.17167878    -0.73800
O803        O  0.17640791  0.51673011  0.20281993    -0.73900
O804        O  0.20773669  0.47731585  0.16945531    -0.73900
O805        O  0.18237246  0.47727558  0.14563905    -0.73900
O806        O  0.15086896  0.51710329  0.17894177    -0.73800
O807        O  0.18013293  0.52028072  0.14781480    -0.73800
O808        O  0.15303259  0.47403385  0.17642462    -0.73900
Ni809      Ni  0.19297636  0.49705071  0.18683609     1.25400
Ni810      Ni  0.16567634  0.49721213  0.16135266     1.25400
C811        C  0.16145113  0.46612264  0.19289389     0.88400
C812        C  0.19760252  0.52750353  0.15482054     0.88300
C813        C  0.15849195  0.52344296  0.19642381     0.88400
C814        C  0.20025435  0.47050256  0.15211082     0.88500
O815        O  0.68204900  0.34482701  0.96999864    -0.73800
O816        O  0.65134298  0.31339279  0.01188589    -0.73800
O817        O  0.68215665  0.34309642  0.01259002    -0.73900
O818        O  0.65103239  0.31516988  0.96907705    -0.73900
O819        O  0.67514316  0.28969466  0.96807626    -0.73900
O820        O  0.70639457  0.31777939  0.01137718    -0.73800
O821        O  0.67566867  0.28799206  0.01057354    -0.73800
O822        O  0.70601846  0.31925938  0.96889898    -0.73900
Ni823      Ni  0.66576573  0.33001737  0.99091774     1.25400
Ni824      Ni  0.69163450  0.30279370  0.98969407     1.25400
C825        C  0.69915050  0.33722697  0.96239522     0.88400
C826        C  0.65856899  0.29546673  0.01819158     0.88300
C827        C  0.69943214  0.33512851  0.01929296     0.88400
C828        C  0.65795345  0.29784419  0.96119229     0.88500
O829        O  0.84793225  0.52430170  0.81549942    -0.73800
O830        O  0.81977150  0.47831351  0.84296021    -0.73800
O831        O  0.85032426  0.48109213  0.81369971    -0.73900
O832        O  0.81717312  0.52136136  0.84451373    -0.73900
O833        O  0.79341367  0.52124786  0.81912925    -0.73900
O834        O  0.82596323  0.48034478  0.78884185    -0.73800
O835        O  0.79543360  0.47808192  0.81814950    -0.73800
O836        O  0.82415754  0.52351109  0.78987620    -0.73900
Ni837      Ni  0.83467088  0.50128464  0.83003474     1.25400
Ni838      Ni  0.80889191  0.50080441  0.80310273     1.25400
C839        C  0.84059671  0.53159652  0.79827222     0.88400
C840        C  0.80305064  0.47033745  0.83514572     0.88300
C841        C  0.84334667  0.47355272  0.79639057     0.88400
C842        C  0.79990769  0.52833132  0.83678280     0.88500
O843        O  0.02205143  0.35214744  0.67358927    -0.73800
O844        O  0.98025238  0.31720301  0.64734707    -0.73800
O845        O  0.97930641  0.34917863  0.67566676    -0.73900
O846        O  0.02310257  0.31993770  0.64549050    -0.73900
O847        O  0.02556339  0.29644311  0.67146434    -0.73900
O848        O  0.98233117  0.32576612  0.70145244    -0.73800
O849        O  0.98288956  0.29376686  0.67323553    -0.73800
O850        O  0.02482635  0.32877501  0.69958334    -0.73900
Ni851      Ni  0.00108400  0.33544250  0.65959032     1.25400
Ni852      Ni  0.00401348  0.31036836  0.68733927     1.25400
C853        C  0.03035928  0.34625090  0.69092506     0.88400
C854        C  0.97434527  0.29991532  0.65605516     0.88300
C855        C  0.97346652  0.34221447  0.69359779     0.88400
C856        C  0.03164974  0.30345197  0.65366518     0.88500
O857        O  0.20683924  0.47931611  0.81874759    -0.73800
O858        O  0.17786108  0.52451632  0.79042755    -0.73800
O859        O  0.20817215  0.52221541  0.82015553    -0.73900
O860        O  0.17677620  0.48164201  0.78857570    -0.73900
O861        O  0.15223943  0.48060647  0.81349382    -0.73900
O862        O  0.18310385  0.52258533  0.84460426    -0.73800
O863        O  0.15282951  0.52365325  0.81465938    -0.73800
O864        O  0.18235189  0.47950358  0.84362997    -0.73900
Ni865      Ni  0.19328904  0.50190338  0.80361037     1.25400
Ni866      Ni  0.16674988  0.50156953  0.82998507     1.25400
C867        C  0.19935899  0.47193080  0.83592872     0.88400
C868        C  0.16049409  0.53166503  0.79792334     0.88300
C869        C  0.20072640  0.52926359  0.83739694     0.88400
C870        C  0.15939924  0.47444529  0.79573853     0.88500
O871        O  0.34953248  0.31847376  0.96989020    -0.73800
O872        O  0.32133118  0.34747496  0.01475778    -0.73800
O873        O  0.35057531  0.31621137  0.01232445    -0.73900
O874        O  0.32049478  0.34966047  0.97219175    -0.73900
O875        O  0.29481951  0.32564396  0.97180493    -0.73900
O876        O  0.32511911  0.29226935  0.01191049    -0.73800
O877        O  0.29586861  0.32350884  0.01412671    -0.73800
O878        O  0.32394597  0.29448146  0.96951556    -0.73900
Ni879      Ni  0.33637531  0.33383186  0.99234592     1.25400
Ni880      Ni  0.30903899  0.30812804  0.99184087     1.25400
C881        C  0.34130805  0.30163762  0.96225510     0.88400
C882        C  0.30391048  0.34034084  0.02195214     0.88300
C883        C  0.34289087  0.29872674  0.01893232     0.88400
C884        C  0.30288609  0.34294186  0.96512715     0.88500
O885        O  0.47794205  0.18353119  0.83681274    -0.73800
O886        O  0.51946284  0.15341484  0.80467898    -0.73800
O887        O  0.52073111  0.18348953  0.83467753    -0.73900
O888        O  0.47659169  0.15335820  0.80670268    -0.73900
O889        O  0.47506794  0.17827900  0.78221944    -0.73900
O890        O  0.51908052  0.20883564  0.81037773    -0.73800
O891        O  0.51792137  0.17858294  0.78022578    -0.73800
O892        O  0.47632732  0.20840676  0.81230508    -0.73900
Ni893      Ni  0.49871990  0.16756183  0.82157744     1.25400
Ni894      Ni  0.49707969  0.19441316  0.79540960     1.25400
C895        C  0.46994733  0.20079039  0.82980671     0.88400
C896        C  0.52557416  0.16112763  0.78715338     0.88300
C897        C  0.52723365  0.20107651  0.82706337     0.88400
C898        C  0.46820323  0.16089219  0.78998797     0.88500
O899        O  0.47599271  0.14477463  0.17112015    -0.73800
O900        O  0.52102671  0.17140702  0.14073130    -0.73800
O901        O  0.51860789  0.14167723  0.17138861    -0.73900
O902        O  0.47835281  0.17446083  0.14057213    -0.73900
O903        O  0.47954438  0.19973210  0.16458941    -0.73900
O904        O  0.52027981  0.16714864  0.19519224    -0.73800
O905        O  0.52233831  0.19691277  0.16461294    -0.73800
O906        O  0.47780712  0.17006040  0.19535867    -0.73900
Ni907      Ni  0.49844083  0.15720025  0.15508919     1.25400
Ni908      Ni  0.50005220  0.18438117  0.18077046     1.25400
C909        C  0.46965445  0.15294499  0.18836730     0.88400
C910        C  0.52931233  0.18848711  0.14770564     0.88300
C911        C  0.52625265  0.14895996  0.18842590     0.88400
C912        C  0.47192630  0.19234740  0.14750200     0.88500
O913        O  0.31730187  0.01580377  0.70908917    -0.73800
O914        O  0.28809893  0.97321031  0.67751121    -0.73800
O915        O  0.31770441  0.97246118  0.70816365    -0.73900
O916        O  0.28788232  0.01646747  0.67856728    -0.73900
O917        O  0.31293603  0.01648136  0.65435317    -0.73900
O918        O  0.34305579  0.97348356  0.68431481    -0.73800
O919        O  0.31368770  0.97330903  0.65368040    -0.73800
O920        O  0.34229289  0.01649818  0.68476600    -0.73900
Ni921      Ni  0.30183697  0.99440354  0.69420435     1.25400
Ni922      Ni  0.32886066  0.99493661  0.66843971     1.25400
C923        C  0.33434009  0.02373005  0.70172599     0.88400
C924        C  0.29609338  0.96620254  0.66044692     0.88300
C925        C  0.33531781  0.96551833  0.70102933     0.88400
C926        C  0.29577720  0.02417526  0.66176183     0.88500
O927        O  0.52264508  0.82194777  0.85072247    -0.73800
O928        O  0.47874008  0.84867817  0.81889983    -0.73800
O929        O  0.47964680  0.82033199  0.85066152    -0.73900
O930        O  0.52160650  0.85026192  0.81875297    -0.73900
O931        O  0.52198851  0.82388463  0.79560884    -0.73900
O932        O  0.48072641  0.79386124  0.82769661    -0.73800
O933        O  0.47937528  0.82231673  0.79597312    -0.73800
O934        O  0.52345822  0.79570298  0.82760362    -0.73900
Ni935      Ni  0.50063449  0.83623290  0.83560321     1.25400
Ni936      Ni  0.50144799  0.80799225  0.81094904     1.25400
C937        C  0.53060746  0.80449907  0.84424882     0.88400
C938        C  0.47162327  0.83999553  0.80226077     0.88300
C939        C  0.47301937  0.80227987  0.84421435     0.88400
C940        C  0.52856181  0.84198436  0.80177446     0.88500
O941        O  0.31855636  0.70922790  0.97539819    -0.73800
O942        O  0.28923214  0.67731991  0.01777730    -0.73800
O943        O  0.31689201  0.71008689  0.01788411    -0.73900
O944        O  0.29078813  0.67682689  0.97516482    -0.73900
O945        O  0.31699123  0.65355893  0.97674840    -0.73900
O946        O  0.34401424  0.68791963  0.01910664    -0.73800
O947        O  0.31636369  0.65495925  0.01966526    -0.73800
O948        O  0.34495640  0.68589694  0.97646514    -0.73900
Ni949      Ni  0.30293353  0.69414113  0.99655022     1.25400
Ni950      Ni  0.33150942  0.66971868  0.99808821     1.25400
C951        C  0.33638201  0.70249841  0.96868619     0.88400
C952        C  0.29814539  0.66099772  0.02587671     0.88300
C953        C  0.33485613  0.70497508  0.02538464     0.88400
C954        C  0.29960121  0.65990447  0.96849201     0.88500
O955        O  0.52133349  0.84621243  0.18298077    -0.73800
O956        O  0.47652706  0.82165655  0.15005913    -0.73800
O957        O  0.47836467  0.84906934  0.18228235    -0.73900
O958        O  0.51971218  0.81894241  0.15038227    -0.73900
O959        O  0.51741888  0.79162527  0.17236958    -0.73900
O960        O  0.47682991  0.82232544  0.20509265    -0.73800
O961        O  0.47450615  0.79513771  0.17276626    -0.73800
O962        O  0.51958824  0.81893942  0.20483968    -0.73900
Ni963      Ni  0.49909139  0.83492976  0.16561331     1.25400
Ni964      Ni  0.49705466  0.80605662  0.18952966     1.25400
C965        C  0.52807435  0.83644804  0.19934581     0.88400
C966        C  0.46755427  0.80456433  0.15641724     0.88300
C967        C  0.47041629  0.84042374  0.19858394     0.88400
C968        C  0.52564716  0.80045755  0.15627260     0.88500
O969        O  0.34949663  0.01842852  0.31750965    -0.73800
O970        O  0.31835016  0.97628014  0.34787083    -0.73800
O971        O  0.34809139  0.97533019  0.31747554    -0.73900
O972        O  0.31959279  0.01947821  0.34767317    -0.73900
O973        O  0.29486699  0.02039061  0.32321222    -0.73900
O974        O  0.32284057  0.97597461  0.29345722    -0.73800
O975        O  0.29302340  0.97746418  0.32374742    -0.73800
O976        O  0.32466272  0.01899151  0.29300314    -0.73900
Ni977      Ni  0.33475923  0.99734268  0.33351435     1.25400
Ni978      Ni  0.30796915  0.99823089  0.30749798     1.25400
C979        C  0.34215609  0.02585798  0.30033869     0.88400
C980        C  0.30062267  0.96989815  0.34076296     0.88300
C981        C  0.34005846  0.96814198  0.30054178     0.88400
C982        C  0.30262544  0.02753485  0.34030744     0.88500
O983        O  0.17904517  0.84567160  0.47539400    -0.73800
O984        O  0.14904865  0.81630637  0.51852479    -0.73800
O985        O  0.17811367  0.84709980  0.51805910    -0.73900
O986        O  0.14945919  0.81482028  0.47594905    -0.73900
O987        O  0.17428924  0.78993354  0.47781234    -0.73900
O988        O  0.20381935  0.82301930  0.51892520    -0.73800
O989        O  0.17450824  0.79219605  0.52050391    -0.73800
O990        O  0.20392477  0.82092596  0.47623139    -0.73900
Ni991      Ni  0.16303592  0.83182470  0.49688147     1.25400
Ni992      Ni  0.19004418  0.80563964  0.49834529     1.25400
C993        C  0.19643034  0.83807006  0.46843157     0.88400
C994        C  0.15716977  0.79991830  0.52731133     0.88300
C995        C  0.19544405  0.84018596  0.52572372     0.88400
C996        C  0.15702045  0.79695805  0.47004310     0.88500
O997        O  0.97657740  0.66683549  0.35673635    -0.73800
O998        O  0.01943715  0.63612157  0.32742034    -0.73800
O999        O  0.01939047  0.66659211  0.35714574    -0.73900
O1000       O  0.97639563  0.63652422  0.32693133    -0.73900
O1001       O  0.97695032  0.66131023  0.30208841    -0.73900
O1002       O  0.01920748  0.69174493  0.33259114    -0.73800
O1003       O  0.01980425  0.66111604  0.30269841    -0.73800
O1004       O  0.97643993  0.69159507  0.33208769    -0.73900
Ni1005     Ni  0.99794217  0.65063042  0.34291908     1.25400
Ni1006     Ni  0.99813728  0.67732261  0.31647839     1.25400
C1007       C  0.96906920  0.68406873  0.34925951     0.88400
C1008       C  0.02683758  0.64367714  0.31034607     0.88300
C1009       C  0.02632834  0.68414844  0.34978983     0.88400
C1010       C  0.96928929  0.64419971  0.30972724     0.88500
O1011       O  0.84723083  0.81047184  0.47718623    -0.73800
O1012       O  0.81991521  0.84507851  0.51870336    -0.73800
O1013       O  0.84868360  0.81342202  0.51962532    -0.73900
O1014       O  0.81878510  0.84255577  0.47609721    -0.73900
O1015       O  0.79245907  0.81951360  0.47862498    -0.73900
O1016       O  0.82313000  0.78932561  0.52130588    -0.73800
O1017       O  0.79449210  0.82111599  0.52118903    -0.73800
O1018       O  0.82095125  0.78749428  0.47902972    -0.73900
Ni1019     Ni  0.83455918  0.82873741  0.49779342     1.25400
Ni1020     Ni  0.80682131  0.80355886  0.50010178     1.25400
C1021       C  0.83856455  0.79322134  0.47111791     0.88400
C1022       C  0.80293315  0.83845661  0.52731360     0.88300
C1023       C  0.84083827  0.79660268  0.52763157     0.88400
C1024       C  0.80075882  0.83587859  0.47006348     0.88500
O1025       O  0.70741138  0.97573500  0.32269021    -0.73800
O1026       O  0.67664972  0.01720230  0.29089772    -0.73800
O1027       O  0.70693013  0.01880362  0.32081964    -0.73900
O1028       O  0.67739430  0.97424646  0.29271745    -0.73900
O1029       O  0.65247024  0.97514765  0.31698610    -0.73900
O1030       O  0.68250920  0.01956747  0.34563334    -0.73800
O1031       O  0.65206825  0.01839098  0.31573069    -0.73800
O1032       O  0.68255448  0.97648682  0.34712695    -0.73900
Ni1033     Ni  0.69296363  0.99651542  0.30593252     1.25400
Ni1034     Ni  0.66651187  0.99745067  0.33224530     1.25400
C1035       C  0.69980230  0.96885516  0.34000766     0.88400
C1036       C  0.65924135  0.02452851  0.29800874     0.88300
C1037       C  0.69975702  0.02662354  0.33791757     0.88400
C1038       C  0.66012944  0.96708293  0.30014064     0.88500
O1039       O  0.97596250  0.70960205  0.67847136    -0.73800
O1040       O  0.02082260  0.68349959  0.70956393    -0.73800
O1041       O  0.01848363  0.71282310  0.67875877    -0.73900
O1042       O  0.97808801  0.68024363  0.70936118    -0.73900
O1043       O  0.97986832  0.65488143  0.68515464    -0.73900
O1044       O  0.02090683  0.68739110  0.65495280    -0.73800
O1045       O  0.02264542  0.65796731  0.68577081    -0.73800
O1046       O  0.97820780  0.68411235  0.65442168    -0.73900
Ni1047     Ni  0.99826865  0.69742865  0.69490290     1.25400
Ni1048     Ni  0.00051888  0.67016030  0.66924999     1.25400
C1049       C  0.96965777  0.70107940  0.66140768     0.88400
C1050       C  0.02942770  0.66652209  0.70266823     0.88300
C1051       C  0.02657463  0.70554944  0.66183642     0.88400
C1052       C  0.97196285  0.66242496  0.70203217     0.88500
O1053       O  0.67193988  0.97557481  0.70087779    -0.73800
O1054       O  0.70586354  0.01769507  0.67366912    -0.73800
O1055       O  0.67273403  0.01879530  0.70030558    -0.73900
O1056       O  0.70519552  0.97469057  0.67421405    -0.73900
O1057       O  0.68318589  0.97474906  0.64700431    -0.73900
O1058       O  0.65083193  0.01862602  0.67325329    -0.73800
O1059       O  0.68395108  0.01777156  0.64657840    -0.73800
O1060       O  0.65011650  0.97535877  0.67358493    -0.73900
Ni1061     Ni  0.68969345  0.99666617  0.68824722     1.25400
Ni1062     Ni  0.66621361  0.99664774  0.65917248     1.25400
C1063       C  0.65559104  0.96833498  0.69161208     0.88400
C1064       C  0.70044641  0.02487490  0.65566385     0.88300
C1065       C  0.65661133  0.02639113  0.69088968     0.88400
C1066       C  0.69947274  0.96748471  0.65637615     0.88500
O1067       O  0.64910481  0.67859290  0.97791001    -0.73800
O1068       O  0.67335315  0.64366484  0.02089300    -0.73800
O1069       O  0.64639889  0.67732826  0.02040152    -0.73900
O1070       O  0.67603216  0.64528220  0.97846406    -0.73900
O1071       O  0.70310779  0.66726268  0.98103888    -0.73900
O1072       O  0.67343106  0.69967413  0.02244267    -0.73800
O1073       O  0.70039839  0.66591962  0.02322849    -0.73800
O1074       O  0.67630009  0.70055066  0.98004954    -0.73900
Ni1075     Ni  0.66024290  0.66043676  0.99937263     1.25400
Ni1076     Ni  0.68924403  0.68414294  0.00182695     1.25400
C1077       C  0.65880892  0.69523533  0.97166093     0.88400
C1078       C  0.69109884  0.64885409  0.02887702     0.88300
C1079       C  0.65507244  0.69379335  0.02832543     0.88400
C1080       C  0.69444873  0.65103393  0.97263966     0.88500
C1081       C  0.04594026  0.27046734  0.63830983    -0.05100
C1082       C  0.04876182  0.29205800  0.64259322     0.00800
C1083       C  0.06840734  0.30160168  0.63813798    -0.07800
C1084       C  0.08453068  0.28917666  0.62934458    -0.05200
C1085       C  0.08175263  0.26759829  0.62514258     0.00800
C1086       C  0.06213965  0.25793204  0.62977211    -0.07700
C1087       C  0.05750437  0.23451085  0.62709199     0.62700
H1088       H  0.03100347  0.26315282  0.64218006     0.13400
H1089       H  0.09985133  0.29604742  0.62644780     0.13400
C1090       C  0.07301059  0.32418493  0.64452967     0.62900
F1091       F  0.05291112  0.22580581  0.64643713    -0.22200
F1092       F  0.07398639  0.22319848  0.61856397    -0.19600
F1093       F  0.04020725  0.23214314  0.61418279    -0.19300
F1094       F  0.07076919  0.32575634  0.66596437    -0.19300
F1095       F  0.05926694  0.33798214  0.63470372    -0.19600
F1096       F  0.09329391  0.33019541  0.63936023    -0.22300
C1097       C  0.13928092  0.23952890  0.56411481    -0.05100
C1098       C  0.13175623  0.22691715  0.58054697     0.00800
C1099       C  0.13250593  0.20455417  0.57884761    -0.07800
C1100       C  0.14119507  0.19555942  0.56068525    -0.05200
C1101       C  0.14967404  0.20810951  0.54461687     0.00800
C1102       C  0.14857661  0.23054290  0.54619161    -0.07700
C1103       C  0.15697275  0.24501453  0.52911435     0.62700
H1104       H  0.13826541  0.25658679  0.56571376     0.13400
H1105       H  0.14228792  0.17848295  0.55931709     0.13400
C1106       C  0.12452440  0.19014566  0.59618048     0.62900
F1107       F  0.15114335  0.26591991  0.53232465    -0.22200
F1108       F  0.14917622  0.23882633  0.50986290    -0.19600
F1109       F  0.17871040  0.24414455  0.52879324    -0.19300
F1110       F  0.10440841  0.19595164  0.60205973    -0.19300
F1111       F  0.13771018  0.19152460  0.61329698    -0.19600
F1112       F  0.12389829  0.16915312  0.58993742    -0.22300
C1113       C  0.08173437  0.23565330  0.57102911    -0.05100
C1114       C  0.09144282  0.25314530  0.58028385     0.00800
C1115       C  0.08790958  0.27363958  0.57194897    -0.07800
C1116       C  0.07162801  0.27638950  0.55734744    -0.05200
C1117       C  0.06097160  0.25891658  0.54900413     0.00800
C1118       C  0.06727282  0.23810668  0.55468209    -0.07700
C1119       C  0.05932904  0.21862973  0.54312436     0.62700
H1120       H  0.08554357  0.22002298  0.57681948     0.13400
H1121       H  0.06749503  0.29222253  0.55217056     0.13400
C1122       C  0.10171714  0.29256729  0.57669012     0.62900
F1123       F  0.06934099  0.20033062  0.54984123    -0.22200
F1124       F  0.06324450  0.22090626  0.52195169    -0.19600
F1125       F  0.03799900  0.21596305  0.54618557    -0.19300
F1126       F  0.11054057  0.29971655  0.55818810    -0.19300
F1127       F  0.11800566  0.28783557  0.59024215    -0.19600
F1128       F  0.08968743  0.30866836  0.58520746    -0.22300
C1129       C  0.06402525  0.29743534  0.36220560    -0.05100
C1130       C  0.05221326  0.28662466  0.34689302     0.00800
C1131       C  0.05911226  0.26603978  0.34048905    -0.07800
C1132       C  0.07718246  0.25734762  0.34986554    -0.05200
C1133       C  0.08863684  0.26809759  0.36523514     0.00800
C1134       C  0.08233942  0.28874120  0.37120594    -0.07700
C1135       C  0.09433441  0.30231540  0.38670174     0.62700
H1136       H  0.05918516  0.31317653  0.36701003     0.13400
H1137       H  0.08236089  0.24155627  0.34563931     0.13400
C1138       C  0.04767718  0.25271308  0.32421982     0.62900
F1139       F  0.09749081  0.32224763  0.37822772    -0.22200
F1140       F  0.11384326  0.29404889  0.39167424    -0.19600
F1141       F  0.08268318  0.30436497  0.40486490    -0.19300
F1142       F  0.04879360  0.26234206  0.30482051    -0.19300
F1143       F  0.02691675  0.25014380  0.32996014    -0.19600
F1144       F  0.05633758  0.23265359  0.32219675    -0.22300
C1145       C  0.15260764  0.22748381  0.41970835    -0.05100
C1146       C  0.13138265  0.22358819  0.41516351     0.00800
C1147       C  0.12022095  0.20878877  0.42764237    -0.07800
C1148       C  0.13013775  0.20038308  0.44565186    -0.05200
C1149       C  0.15127137  0.20495288  0.45068171     0.00800
C1150       C  0.16298770  0.21812453  0.43677499    -0.07700
C1151       C  0.18652503  0.22202184  0.43912807     0.62700
H1152       H  0.16109657  0.23833939  0.40965793     0.13400
H1153       H  0.12136082  0.18962473  0.45557757     0.13400
C1154       C  0.09855113  0.20036989  0.42222346     0.62900
F1155       F  0.19489558  0.23247257  0.42198161    -0.22200
F1156       F  0.19706908  0.20288774  0.44095849    -0.19600
F1157       F  0.19029196  0.23443420  0.45654012    -0.19300
F1158       F  0.09143658  0.20707939  0.40289200    -0.19300
F1159       F  0.08429476  0.20668828  0.43732994    -0.19600
F1160       F  0.09924165  0.17845227  0.42184759    -0.22300
C1161       C  0.08075167  0.25520994  0.44835835    -0.05100
C1162       C  0.05928475  0.25720113  0.44313310     0.00800
C1163       C  0.05417108  0.26011352  0.42170932    -0.07800
C1164       C  0.06927116  0.25448104  0.40674776    -0.05200
C1165       C  0.09081961  0.25326782  0.41185201     0.00800
C1166       C  0.09649002  0.25679034  0.43302869    -0.07700
C1167       C  0.11775033  0.26482535  0.44014037     0.62700
H1168       H  0.08552839  0.25378432  0.46454822     0.13400
H1169       H  0.06398769  0.25216384  0.39091212     0.13400
C1170       C  0.03401964  0.27042740  0.41380429     0.62900
F1171       F  0.11487550  0.28357158  0.45100416    -0.22200
F1172       F  0.13110778  0.26913011  0.42363626    -0.19600
F1173       F  0.12705541  0.25030214  0.45345550    -0.19300
F1174       F  0.02164632  0.27833690  0.42978087    -0.19300
F1175       F  0.02248857  0.25613240  0.40214267    -0.19600
F1176       F  0.03917424  0.28734936  0.40105684    -0.22300
C1177       C  0.92408804  0.28166340  0.62803633    -0.05100
C1178       C  0.92612947  0.25956398  0.62932387     0.00800
C1179       C  0.94388387  0.25079763  0.63955560    -0.07800
C1180       C  0.95921795  0.26452213  0.64791761    -0.05200
C1181       C  0.95751483  0.28668995  0.64623532     0.00800
C1182       C  0.93954567  0.29547463  0.63607564    -0.07700
C1183       C  0.93615889  0.31926508  0.63427546     0.62700
H1184       H  0.91014244  0.28802470  0.62056125     0.13400
H1185       H  0.97291162  0.25795831  0.65567584     0.13400
C1186       C  0.94661315  0.22703181  0.64166769     0.62900
F1187       F  0.91659708  0.32418250  0.62603664    -0.22200
F1188       F  0.95118395  0.32794955  0.62119857    -0.19600
F1189       F  0.93748989  0.32850104  0.65385241    -0.19300
F1190       F  0.96371425  0.22178889  0.65406402    -0.19300
F1191       F  0.94982434  0.21838217  0.62212741    -0.19600
F1192       F  0.92885153  0.21817784  0.65058663    -0.22300
C1193       C  0.87964894  0.22817151  0.56248625    -0.05100
C1194       C  0.87996244  0.21686999  0.58150069     0.00800
C1195       C  0.87124137  0.19610005  0.58206779    -0.07800
C1196       C  0.86209274  0.18783430  0.56377780    -0.05200
C1197       C  0.86140867  0.19928665  0.54499857     0.00800
C1198       C  0.87056869  0.21968964  0.54414710    -0.07700
C1199       C  0.87103947  0.23222695  0.52388367     0.62700
H1200       H  0.88614291  0.24401154  0.56221949     0.13400
H1201       H  0.85514234  0.17214706  0.56422727     0.13400
C1202       C  0.87120303  0.18153419  0.60105976     0.62900
F1203       F  0.88204308  0.25101135  0.52601142    -0.22200
F1204       F  0.85075423  0.23710794  0.51771340    -0.19600
F1205       F  0.88070023  0.22034317  0.50842899    -0.19300
F1206       F  0.88201025  0.18940283  0.61805131    -0.19300
F1207       F  0.88042991  0.16240250  0.59570057    -0.19600
F1208       F  0.85063626  0.17781479  0.60708450    -0.22300
C1209       C  0.92764842  0.25912522  0.57878721    -0.05100
C1210       C  0.92326444  0.23860873  0.58598560     0.00800
C1211       C  0.93326406  0.22097688  0.57642994    -0.07800
C1212       C  0.94715141  0.22470625  0.55979993    -0.05200
C1213       C  0.95214363  0.24530557  0.55332535     0.00800
C1214       C  0.94235018  0.26292730  0.56294852    -0.07700
C1215       C  0.94651484  0.28592256  0.55726675     0.62700
H1216       H  0.91936368  0.27240786  0.58566619     0.13400
H1217       H  0.95483257  0.21139395  0.55222404     0.13400
C1218       C  0.93043251  0.19813523  0.58326388     0.62900
F1219       F  0.95286807  0.29671681  0.57499890    -0.22200
F1220       F  0.92810967  0.29499520  0.54992638    -0.19600
F1221       F  0.96183556  0.28849780  0.54215209    -0.19300
F1222       F  0.91978666  0.19623338  0.60195824    -0.19300
F1223       F  0.94995398  0.18872280  0.58587024    -0.19600
F1224       F  0.91956416  0.18723903  0.56795333    -0.22300
C1225       C  0.94148730  0.29614220  0.35799374    -0.05100
C1226       C  0.95960767  0.28517524  0.35154925     0.00800
C1227       C  0.96097350  0.26299813  0.35520998    -0.07800
C1228       C  0.94374342  0.25245003  0.36435862    -0.05200
C1229       C  0.92519115  0.26321685  0.36959458     0.00800
C1230       C  0.92407337  0.28551799  0.36678202    -0.07700
C1231       C  0.90455334  0.29809862  0.37276650     0.62700
H1232       H  0.94071129  0.31306535  0.35521482     0.13400
H1233       H  0.94438596  0.23549907  0.36700855     0.13400
C1234       C  0.98069463  0.25055548  0.34995086     0.62900
F1235       F  0.90806040  0.31972543  0.37179017    -0.22200
F1236       F  0.89844756  0.29323875  0.39297037    -0.19600
F1237       F  0.88831575  0.29336682  0.35921555    -0.19300
F1238       F  0.99788430  0.26014061  0.35919121    -0.19300
F1239       F  0.98340986  0.24987252  0.32850782    -0.19600
F1240       F  0.97969048  0.22987565  0.35715431    -0.22300
C1241       C  0.87799090  0.19854452  0.41734972    -0.05100
C1242       C  0.87918112  0.22071001  0.41737171     0.00800
C1243       C  0.87019158  0.23216847  0.43418365    -0.07800
C1244       C  0.86149396  0.22089162  0.45113656    -0.05200
C1245       C  0.86103619  0.19862426  0.45158198     0.00800
C1246       C  0.86938808  0.18716054  0.43430113    -0.07700
C1247       C  0.86858738  0.16310690  0.43322747     0.62700
H1248       H  0.88370854  0.19016694  0.40372436     0.13400
H1249       H  0.85467638  0.22945796  0.46416428     0.13400
C1250       C  0.86881038  0.25618106  0.43371772     0.62900
F1251       F  0.87555733  0.15550626  0.41412019    -0.22200
F1252       F  0.84812445  0.15625207  0.43602297    -0.19600
F1253       F  0.88132924  0.15448026  0.44858094    -0.19300
F1254       F  0.85777092  0.26266198  0.41618723    -0.19300
F1255       F  0.88872702  0.26475183  0.43313099    -0.19600
F1256       F  0.85862007  0.26416190  0.45116819    -0.22300
C1257       C  0.93145217  0.25821873  0.41955364    -0.05100
C1258       C  0.92413034  0.23902214  0.41138762     0.00800
C1259       C  0.93349123  0.21976739  0.41818362    -0.07800
C1260       C  0.94737977  0.22025966  0.43526182    -0.05200
C1261       C  0.95401182  0.23948449  0.44393006     0.00800
C1262       C  0.94672251  0.25886699  0.43534790    -0.07700
C1263       C  0.95525942  0.28013315  0.44253394     0.62700
H1264       H  0.92486991  0.27278708  0.41355011     0.13400
H1265       H  0.95392860  0.20556253  0.44123931     0.13400
C1266       C  0.93097271  0.19875080  0.40705395     0.62900
F1267       F  0.94714948  0.29675649  0.43086090    -0.22200
F1268       F  0.97689304  0.28037299  0.44035484    -0.19600
F1269       F  0.95013544  0.28364614  0.46324045    -0.19300
F1270       F  0.91919159  0.20033514  0.38895995    -0.19300
F1271       F  0.92170970  0.18424533  0.42039510    -0.19600
F1272       F  0.95065432  0.19119333  0.40150418    -0.22300
C1273       C  0.06386821  0.63189011  0.31051720    -0.05100
C1274       C  0.04455219  0.63264420  0.29996902     0.00800
C1275       C  0.04267012  0.62307006  0.28006479    -0.07800
C1276       C  0.06081151  0.61444955  0.27058281    -0.05200
C1277       C  0.08047385  0.61472126  0.28066283     0.00800
C1278       C  0.08192265  0.62290109  0.30129102    -0.07700
C1279       C  0.10225231  0.62181701  0.31376297     0.62700
H1280       H  0.06480015  0.63887097  0.32596686     0.13400
H1281       H  0.05983077  0.60770590  0.25504942     0.13400
C1282       C  0.02146137  0.62145011  0.26930784     0.62900
F1283       F  0.09908905  0.62706427  0.33456116    -0.22200
F1284       F  0.11678569  0.63579840  0.30560275    -0.19600
F1285       F  0.11040886  0.60148373  0.31310789    -0.19300
F1286       F  0.01384715  0.64147895  0.26480035    -0.19300
F1287       F  0.00740370  0.61116210  0.28234788    -0.19600
F1288       F  0.02272644  0.61016958  0.25078294    -0.22300
C1289       C  0.13236838  0.57392185  0.21630206    -0.05100
C1290       C  0.12811105  0.56866067  0.23726350     0.00800
C1291       C  0.13342338  0.54805087  0.24459044    -0.07800
C1292       C  0.14207732  0.53333507  0.23034538    -0.05200
C1293       C  0.14669663  0.53884702  0.20954314     0.00800
C1294       C  0.14182343  0.55951026  0.20238427    -0.07700
C1295       C  0.14805677  0.56682824  0.18064979     0.62700
H1296       H  0.12862024  0.58980161  0.21100357     0.13400
H1297       H  0.14616466  0.51756103  0.23578470     0.13400
C1298       C  0.13156287  0.54097434  0.26722407     0.62900
F1299       F  0.14274663  0.58782080  0.17709585    -0.22200
F1300       F  0.13808200  0.55467958  0.16567568    -0.19600
F1301       F  0.16959946  0.56483927  0.17848222    -0.19300
F1302       F  0.11547544  0.52635459  0.26893271    -0.19300
F1303       F  0.12775218  0.55749753  0.28084802    -0.19600
F1304       F  0.15018307  0.53143648  0.27343937    -0.22300
C1305       C  0.08067081  0.56291476  0.28278911    -0.05100
C1306       C  0.08556255  0.57026644  0.26261806     0.00800
C1307       C  0.07437018  0.56229547  0.24519795    -0.07800
C1308       C  0.05958357  0.54623735  0.24856640    -0.05200
C1309       C  0.05422593  0.53941134  0.26876840     0.00800
C1310       C  0.06483367  0.54788252  0.28630785    -0.07700
C1311       C  0.06016967  0.54199960  0.30886490     0.62700
H1312       H  0.08907915  0.56944862  0.29602191     0.13400
H1313       H  0.05117052  0.53969585  0.23530092     0.13400
C1314       C  0.07653375  0.57081952  0.22309912     0.62900
F1315       F  0.05524683  0.56015989  0.31996154    -0.22200
F1316       F  0.07789866  0.53282852  0.31762317    -0.19600
F1317       F  0.04361788  0.52801135  0.31098127    -0.19300
F1318       F  0.08567262  0.59064868  0.22248588    -0.19300
F1319       F  0.05686294  0.57266296  0.21396024    -0.19600
F1320       F  0.08843870  0.55684064  0.21137269    -0.22300
C1321       C  0.08253974  0.34710611  0.26733390    -0.05100
C1322       C  0.08733131  0.36831190  0.27163245     0.00800
C1323       C  0.07478649  0.37949916  0.28630159    -0.07800
C1324       C  0.05652100  0.36964293  0.29432158    -0.05200
C1325       C  0.05122706  0.34850330  0.28943901     0.00800
C1326       C  0.06501410  0.33682252  0.27604682    -0.07700
C1327       C  0.06197220  0.31343564  0.27109765     0.62700
H1328       H  0.09264408  0.33865303  0.25652692     0.13400
H1329       H  0.04665076  0.37842272  0.30511095     0.13400
C1330       C  0.08050243  0.40112133  0.29496780     0.62900
F1331       F  0.07858857  0.30510277  0.25971619    -0.22200
F1332       F  0.04392347  0.31070583  0.25933692    -0.19600
F1333       F  0.06061293  0.30198117  0.28950034    -0.19300
F1334       F  0.06635556  0.41607335  0.28769647    -0.19300
F1335       F  0.10062441  0.40736488  0.28964015    -0.19600
F1336       F  0.07943972  0.40057397  0.31659621    -0.22300
C1337       C  0.15820682  0.44441566  0.22505317    -0.05100
C1338       C  0.15156865  0.44787846  0.20431675     0.00800
C1339       C  0.13656446  0.43367082  0.19545704    -0.07800
C1340       C  0.12917123  0.41656203  0.20770210    -0.05200
C1341       C  0.13616160  0.41319657  0.22822801     0.00800
C1342       C  0.15079929  0.42743680  0.23718839    -0.07700
C1343       C  0.15809683  0.42525442  0.25976672     0.62700
H1344       H  0.16938438  0.45528471  0.23190771     0.13400
H1345       H  0.11766873  0.40564937  0.20142999     0.13400
C1346       C  0.12844974  0.43608756  0.17323449     0.62900
F1347       F  0.17002759  0.44241612  0.26609790    -0.22200
F1348       F  0.17036264  0.40729011  0.26197182    -0.19600
F1349       F  0.14089298  0.42390223  0.27294960    -0.19300
F1350       F  0.14515740  0.43600982  0.15939210    -0.19300
F1351       F  0.11730701  0.45484485  0.17133619    -0.19600
F1352       F  0.11511492  0.41972085  0.16764533    -0.22300
C1353       C  0.05211791  0.41615063  0.23951036    -0.05100
C1354       C  0.05582462  0.43812332  0.23976479     0.00800
C1355       C  0.07693812  0.44508627  0.23751542    -0.07800
C1356       C  0.09311857  0.43066529  0.24191714    -0.05200
C1357       C  0.08944668  0.40869424  0.24234051     0.00800
C1358       C  0.06876784  0.40160906  0.23781182    -0.07700
C1359       C  0.06356224  0.38000055  0.22900148     0.62700
H1360       H  0.03620637  0.41011412  0.23995783     0.13400
H1361       H  0.10869757  0.43686658  0.24442648     0.13400
C1362       C  0.08327249  0.46692182  0.22972649     0.62900
F1363       F  0.05328729  0.38266290  0.21009083    -0.22200
F1364       F  0.05024352  0.36934496  0.24246031    -0.19600
F1365       F  0.08128710  0.36787741  0.22520657    -0.19300
F1366       F  0.09427682  0.47762153  0.24508046    -0.19300
F1367       F  0.06621330  0.47902422  0.22351649    -0.19600
F1368       F  0.09628464  0.46457377  0.21252204    -0.22300
C1369       C  0.95419056  0.63016359  0.27677405    -0.05100
C1370       C  0.95188935  0.63345445  0.29837156     0.00800
C1371       C  0.93247004  0.62828138  0.30806423    -0.07800
C1372       C  0.91621159  0.61967269  0.29573820    -0.05200
C1373       C  0.91863151  0.61604413  0.27421618     0.00800
C1374       C  0.93784934  0.62182535  0.26440283    -0.07700
C1375       C  0.94188075  0.62074094  0.24101782     0.62700
H1376       H  0.96885126  0.63466784  0.26932038     0.13400
H1377       H  0.90117308  0.61599811  0.30280562     0.13400
C1378       C  0.92841218  0.63290931  0.33102823     0.62900
F1379       F  0.94679633  0.64080501  0.23375247    -0.22200
F1380       F  0.92488482  0.61351336  0.22969114    -0.19600
F1381       F  0.95878635  0.60742550  0.23726804    -0.19300
F1382       F  0.93155443  0.65422607  0.33488013    -0.19300
F1383       F  0.94186682  0.62103027  0.34335556    -0.19600
F1384       F  0.90800649  0.62800382  0.33684681    -0.22300
C1385       C  0.86365417  0.55126489  0.24397787    -0.05100
C1386       C  0.86940088  0.56975669  0.23313204     0.00800
C1387       C  0.86598845  0.57082770  0.21120953    -0.07800
C1388       C  0.85653747  0.55348938  0.20104684    -0.05200
C1389       C  0.84938443  0.53562126  0.21200903     0.00800
C1390       C  0.85350261  0.53417231  0.23381590    -0.07700
C1391       C  0.84778381  0.51446555  0.24617469     0.62700
H1392       H  0.86664604  0.55057973  0.26064706     0.13400
H1393       H  0.85416772  0.55400804  0.18433721     0.13400
C1394       C  0.87229294  0.59014875  0.19843140     0.62900
F1395       F  0.85585461  0.51504604  0.26628689    -0.22200
F1396       F  0.85584304  0.49668676  0.23633639    -0.19600
F1397       F  0.82615703  0.51273470  0.24759455    -0.19300
F1398       F  0.87000093  0.58673744  0.17715822    -0.19300
F1399       F  0.89312041  0.59509730  0.20217526    -0.19600
F1400       F  0.85977788  0.60724966  0.20371620    -0.22300
C1401       C  0.92234088  0.56369428  0.23957965    -0.05100
C1402       C  0.91164809  0.57079414  0.25738720     0.00800
C1403       C  0.91595967  0.56139109  0.27708942    -0.07800
C1404       C  0.93253883  0.54675833  0.27862870    -0.05200
C1405       C  0.94371380  0.54018812  0.26092532     0.00800
C1406       C  0.93813049  0.54814251  0.24091758    -0.07700
C1407       C  0.94864083  0.54008979  0.22109782     0.62700
H1408       H  0.91835272  0.57071836  0.22465117     0.13400
H1409       H  0.93655783  0.54007041  0.29375386     0.13400
C1410       C  0.90318923  0.56546489  0.29670947     0.62900
F1411       F  0.94020134  0.54936895  0.20332557    -0.22200
F1412       F  0.94587475  0.51843809  0.21955054    -0.19600
F1413       F  0.96991388  0.54450018  0.22148037    -0.19300
F1414       F  0.89577555  0.54635762  0.30432859    -0.19300
F1415       F  0.88599581  0.57844877  0.29332369    -0.19600
F1416       F  0.91592310  0.57457957  0.31173287    -0.22300
C1417       C  0.92183889  0.34672308  0.27220572    -0.05100
C1418       C  0.91792058  0.36837395  0.27531560     0.00800
C1419       C  0.93200218  0.38015565  0.28802149    -0.07800
C1420       C  0.95034459  0.37004353  0.29569354    -0.05200
C1421       C  0.95451051  0.34837840  0.29214366     0.00800
C1422       C  0.93961305  0.33638318  0.28042153    -0.07700
C1423       C  0.94183220  0.31262617  0.27670940     0.62700
H1424       H  0.91075182  0.33788379  0.26279109     0.13400
H1425       H  0.96130138  0.37913627  0.30505228     0.13400
C1426       C  0.92814867  0.40285028  0.29492474     0.62900
F1427       F  0.92415212  0.30407678  0.26733220    -0.22200
F1428       F  0.94465807  0.30220765  0.29557057    -0.19600
F1429       F  0.95872998  0.30871719  0.26361227    -0.19300
F1430       F  0.90843668  0.41033919  0.28958427    -0.19300
F1431       F  0.94316920  0.41588881  0.28607135    -0.19600
F1432       F  0.92987074  0.40405885  0.31647065    -0.22300
C1433       C  0.87014362  0.41243373  0.21255999    -0.05100
C1434       C  0.86475506  0.41043571  0.23374493     0.00800
C1435       C  0.85076654  0.42534097  0.24288054    -0.07800
C1436       C  0.84260482  0.44170017  0.23033099    -0.05200
C1437       C  0.84782678  0.44384151  0.20903971     0.00800
C1438       C  0.86190760  0.42886658  0.19991700    -0.07700
C1439       C  0.86802116  0.42977108  0.17696782     0.62700
H1440       H  0.88113195  0.40104983  0.20608590     0.13400
H1441       H  0.83198440  0.45315202  0.23725322     0.13400
C1442       C  0.84495546  0.42455453  0.26598002     0.62900
F1443       F  0.88034955  0.41263126  0.17117715    -0.22200
F1444       F  0.87943519  0.44797415  0.17304340    -0.19600
F1445       F  0.85011756  0.42960098  0.16467129    -0.19300
F1446       F  0.83364266  0.44227425  0.27211880    -0.19300
F1447       F  0.86295918  0.42359413  0.27809782    -0.19600
F1448       F  0.83265223  0.40698875  0.26994542    -0.22300
C1449       C  0.90853398  0.42876880  0.24203207    -0.05100
C1450       C  0.91265267  0.40692961  0.24370261     0.00800
C1451       C  0.93313598  0.39978688  0.23825606    -0.07800
C1452       C  0.94963815  0.41461090  0.23822214    -0.05200
C1453       C  0.94547392  0.43656526  0.23803135     0.00800
C1454       C  0.92417778  0.44299220  0.23593118    -0.07700
C1455       C  0.91715992  0.46403148  0.22670275     0.62700
H1456       H  0.89308761  0.43508118  0.24512007     0.13400
H1457       H  0.96565752  0.40878992  0.23811905     0.13400
C1458       C  0.93802153  0.37767950  0.23043437     0.62900
F1459       F  0.90394805  0.46013672  0.20996719    -0.22200
F1460       F  0.93387643  0.47584305  0.21933148    -0.19600
F1461       F  0.90611071  0.47569752  0.24137463    -0.19300
F1462       F  0.94686414  0.37917269  0.21070322    -0.19300
F1463       F  0.92021653  0.36527304  0.22870063    -0.19600
F1464       F  0.95238497  0.36791653  0.24353074    -0.22300
C1465       C  0.73030904  0.61822574  0.06260766    -0.05100
C1466       C  0.71795033  0.61387539  0.08030964     0.00800
C1467       C  0.69615236  0.61900185  0.07995862    -0.07800
C1468       C  0.68785724  0.62915915  0.06219486    -0.05200
C1469       C  0.70061511  0.63534322  0.04539541     0.00800
C1470       C  0.72202610  0.62897188  0.04508260    -0.07700
C1471       C  0.73597008  0.63312184  0.02622392     0.62700
H1472       H  0.74684702  0.61406761  0.06302829     0.13400
H1473       H  0.67126492  0.63315029  0.06188279     0.13400
C1474       C  0.68067831  0.61439174  0.09753391     0.62900
F1475       F  0.75505983  0.62261940  0.02781573    -0.22200
F1476       F  0.74002730  0.65455884  0.02447066    -0.19600
F1477       F  0.72606787  0.62613224  0.00823978    -0.19300
F1478       F  0.68965770  0.60512373  0.11493256    -0.19300
F1479       F  0.66524044  0.60091406  0.09015328    -0.19600
F1480       F  0.67128970  0.63313111  0.10381344    -0.22300
C1481       C  0.78293909  0.57143966  0.12868407    -0.05100
C1482       C  0.76095234  0.56989812  0.12949159     0.00800
C1483       C  0.75161149  0.55232487  0.13966783    -0.07800
C1484       C  0.76470219  0.53621987  0.14752655    -0.05200
C1485       C  0.78674649  0.53779833  0.14717251     0.00800
C1486       C  0.79609660  0.55590142  0.13775753    -0.07700
C1487       C  0.81963464  0.55961965  0.13848294     0.62700
H1488       H  0.78971834  0.58528561  0.12128388     0.13400
H1489       H  0.75751351  0.52251148  0.15484716     0.13400
C1490       C  0.72813453  0.54992291  0.14337822     0.62900
F1491       F  0.82507153  0.57928267  0.13052569    -0.22200
F1492       F  0.83001483  0.54436557  0.12688320    -0.19600
F1493       F  0.82632142  0.55875814  0.15900804    -0.19300
F1494       F  0.71692456  0.56832519  0.13978612    -0.19300
F1495       F  0.72462131  0.54421752  0.16400312    -0.19600
F1496       F  0.72045214  0.53412745  0.13053644    -0.22300
C1497       C  0.73357669  0.54640139  0.05883527    -0.05100
C1498       C  0.75409901  0.54566636  0.05100130     0.00800
C1499       C  0.76993398  0.55838676  0.05994698    -0.07800
C1500       C  0.76446633  0.57183559  0.07660922    -0.05200
C1501       C  0.74387993  0.57253912  0.08461214     0.00800
C1502       C  0.72819200  0.55934456  0.07578224    -0.07700
C1503       C  0.70582094  0.55766856  0.08366464     0.62700
H1504       H  0.72170007  0.53630671  0.05186342     0.13400
H1505       H  0.77613926  0.58218919  0.08343083     0.13400
C1506       C  0.79234978  0.55766117  0.05182475     0.62900
F1507       F  0.69220164  0.56515763  0.06847456    -0.22200
F1508       F  0.70247088  0.56883613  0.10178924    -0.19600
F1509       F  0.70117965  0.53663605  0.08770161    -0.19300
F1510       F  0.79274413  0.56401918  0.03111408    -0.19300
F1511       F  0.80015131  0.53723107  0.05328056    -0.19600
F1512       F  0.80550139  0.57083897  0.06311191    -0.22300
C1513       C  0.71879798  0.37384487  0.06173038    -0.05100
C1514       C  0.73430184  0.36162455  0.07177504     0.00800
C1515       C  0.73895512  0.34115842  0.06374055    -0.07800
C1516       C  0.72714101  0.33340262  0.04677880    -0.05200
C1517       C  0.71141182  0.34548020  0.03679110     0.00800
C1518       C  0.70757480  0.36648021  0.04412841    -0.07700
C1519       C  0.69169267  0.38126451  0.03385504     0.62700
H1520       H  0.71475004  0.38902114  0.06839226     0.13400
H1521       H  0.73010525  0.31737688  0.04146261     0.13400
C1522       C  0.75542906  0.32648642  0.07315975     0.62900
F1523       F  0.69247395  0.40151423  0.04213840    -0.22200
F1524       F  0.67153710  0.37364396  0.03690577    -0.19600
F1525       F  0.69585906  0.38290039  0.01266101    -0.19300
F1526       F  0.74597317  0.31349935  0.08782366    -0.19300
F1527       F  0.77161395  0.33753878  0.08249851    -0.19600
F1528       F  0.76435447  0.31385336  0.05781845    -0.22300
C1529       C  0.76934828  0.43753795  0.15230541    -0.05100
C1530       C  0.78787438  0.44614098  0.14364142     0.00800
C1531       C  0.79518331  0.43765430  0.12420224    -0.07800
C1532       C  0.78465026  0.42008302  0.11539461    -0.05200
C1533       C  0.76675664  0.41107795  0.12461998     0.00800
C1534       C  0.75847973  0.42048105  0.14304429    -0.07700
C1535       C  0.73809087  0.41293149  0.15299465     0.62700
H1536       H  0.76341737  0.44404680  0.16681609     0.13400
H1537       H  0.79068532  0.41283352  0.10129649     0.13400
C1538       C  0.81387050  0.44680948  0.11243155     0.62900
F1539       F  0.74159505  0.39440945  0.16400070    -0.22200
F1540       F  0.72299290  0.40949692  0.13779243    -0.19600
F1541       F  0.73007696  0.42775793  0.16684368    -0.19300
F1542       F  0.83210076  0.44380475  0.12386689    -0.19300
F1543       F  0.81065216  0.46820647  0.10885951    -0.19600
F1544       F  0.81674026  0.43723552  0.09314547    -0.22300
C1545       C  0.73796631  0.42231250  0.07921261    -0.05100
C1546       C  0.75310784  0.40619454  0.07856934     0.00800
C1547       C  0.76790067  0.40559853  0.06201251    -0.07800
C1548       C  0.76676421  0.42120280  0.04641677    -0.05200
C1549       C  0.75151667  0.43729858  0.04696219     0.00800
C1550       C  0.73631729  0.43746514  0.06323557    -0.07700
C1551       C  0.71786486  0.45273525  0.06438359     0.62700
H1552       H  0.72661252  0.42230603  0.09187831     0.13400
H1553       H  0.77833838  0.42121187  0.03393537     0.13400
C1554       C  0.78549502  0.38942327  0.06032779     0.62900
F1555       F  0.69943735  0.44132869  0.06667871    -0.22200
F1556       F  0.71575820  0.46521180  0.04672554    -0.19600
F1557       F  0.72027293  0.46575689  0.08159848    -0.19300
F1558       F  0.78725854  0.37672531  0.07783474    -0.19300
F1559       F  0.80447301  0.39981247  0.05774865    -0.19600
F1560       F  0.78200228  0.37669338  0.04308192    -0.22300
C1561       C  0.70982210  0.61181652  0.92918449    -0.05100
C1562       C  0.72601052  0.62302484  0.91923143     0.00800
C1563       C  0.73350937  0.64193784  0.92843798    -0.07800
C1564       C  0.72307384  0.65005616  0.94611565    -0.05200
C1565       C  0.70576839  0.63969477  0.95534120     0.00800
C1566       C  0.69976162  0.61952153  0.94734134    -0.07700
C1567       C  0.68302340  0.60590600  0.95769532     0.62700
H1568       H  0.70453014  0.59722626  0.92219600     0.13400
H1569       H  0.72812636  0.66511784  0.95241712     0.13400
C1570       C  0.75250211  0.65363085  0.91980062     0.62900
F1571       F  0.68246015  0.58567927  0.94933190    -0.22200
F1572       F  0.66338994  0.61495556  0.95486552    -0.19600
F1573       F  0.68725073  0.60392263  0.97885009    -0.19300
F1574       F  0.74699973  0.66451082  0.90184761    -0.19300
F1575       F  0.76849744  0.63944508  0.91528308    -0.19600
F1576       F  0.76027429  0.66814613  0.93405113    -0.22300
C1577       C  0.78109743  0.57257926  0.87393419    -0.05100
C1578       C  0.76142850  0.57755786  0.86528133     0.00800
C1579       C  0.75448107  0.56633604  0.84736903    -0.07800
C1580       C  0.76733442  0.55011781  0.83924348    -0.05200
C1581       C  0.78712835  0.54497485  0.84784179     0.00800
C1582       C  0.79414583  0.55650425  0.86571084    -0.07700
C1583       C  0.81534482  0.55249837  0.87605408     0.62700
H1584       H  0.78651098  0.58197517  0.88696311     0.13400
H1585       H  0.76201867  0.54155813  0.82559118     0.13400
C1586       C  0.73381787  0.57145507  0.83642679     0.62900
F1587       F  0.81877063  0.56583395  0.89289976    -0.22200
F1588       F  0.83135678  0.55592186  0.86177718    -0.19600
F1589       F  0.81626664  0.53190819  0.88346863    -0.19300
F1590       F  0.73514770  0.59093942  0.82667675    -0.19300
F1591       F  0.71750856  0.57178529  0.85064648    -0.19600
F1592       F  0.72890234  0.55661868  0.82126499    -0.22300
C1593       C  0.76570435  0.58244285  0.92363322    -0.05100
C1594       C  0.74753967  0.58011209  0.91140658     0.00800
C1595       C  0.73450137  0.56219264  0.91424571    -0.07800
C1596       C  0.74015996  0.54715666  0.92936141    -0.05200
C1597       C  0.75831083  0.54943271  0.94158105     0.00800
C1598       C  0.77171851  0.56700349  0.93836529    -0.07700
C1599       C  0.79262253  0.56889302  0.94968067     0.62700
H1600       H  0.77541912  0.59626064  0.92103165     0.13400
H1601       H  0.73011515  0.53351391  0.93188966     0.13400
C1602       C  0.71446010  0.55815935  0.90207001     0.62900
F1603       F  0.80421081  0.58596102  0.94246407    -0.22200
F1604       F  0.80436615  0.55069654  0.94647721    -0.19600
F1605       F  0.78940347  0.57158765  0.97088107    -0.19300
F1606       F  0.71728275  0.54058598  0.88945898    -0.19300
F1607       F  0.70853117  0.57508224  0.88971524    -0.19600
F1608       F  0.69816918  0.55416599  0.91588317    -0.22300
C1609       C  0.71588839  0.37438901  0.91733774    -0.05100
C1610       C  0.73570692  0.36601734  0.91233844     0.00800
C1611       C  0.74419844  0.34961496  0.92488730    -0.07800
C1612       C  0.73190005  0.34130379  0.94129463    -0.05200
C1613       C  0.71144352  0.34880185  0.94578356     0.00800
C1614       C  0.70353613  0.36624313  0.93386921    -0.07700
C1615       C  0.68215532  0.37622068  0.93804801     0.62700
H1616       H  0.70988353  0.38713320  0.90770010     0.13400
H1617       H  0.73824793  0.32846190  0.95060536     0.13400
C1618       C  0.76623134  0.34096651  0.92118607     0.62900
F1619       F  0.67785928  0.39278453  0.92444855    -0.22200
F1620       F  0.68161456  0.38428536  0.95815758    -0.19600
F1621       F  0.66649995  0.36124147  0.93558436    -0.19300
F1622       F  0.77248898  0.32730193  0.93698771    -0.19300
F1623       F  0.78052557  0.35739660  0.92043389    -0.19600
F1624       F  0.76690883  0.32997875  0.90252965    -0.22300
C1625       C  0.78795331  0.42461609  0.87245722    -0.05100
C1626       C  0.77039148  0.41614343  0.86221244     0.00800
C1627       C  0.76359171  0.42556358  0.84319529    -0.07800
C1628       C  0.77483773  0.44294882  0.83515473    -0.05200
C1629       C  0.79236679  0.45175608  0.84543639     0.00800
C1630       C  0.79908008  0.44226742  0.86463769    -0.07700
C1631       C  0.81801168  0.45011995  0.87693678     0.62700
H1632       H  0.79334980  0.41675393  0.88650821     0.13400
H1633       H  0.76960940  0.44977274  0.82047244     0.13400
C1634       C  0.74470296  0.41830107  0.83050855     0.62900
F1635       F  0.82116863  0.43864897  0.89516643    -0.22200
F1636       F  0.81503943  0.47107421  0.88257816    -0.19600
F1637       F  0.83603220  0.44812923  0.86493521    -0.19300
F1638       F  0.73252504  0.40331194  0.84047743    -0.19300
F1639       F  0.75167718  0.40990886  0.81175884    -0.19600
F1640       F  0.73186676  0.43553366  0.82629258    -0.22300
C1641       C  0.76970336  0.40922131  0.92172605    -0.05100
C1642       C  0.75346835  0.41074428  0.90699959     0.00800
C1643       C  0.73921349  0.42798651  0.90779592    -0.07800
C1644       C  0.74145318  0.44290028  0.92389781    -0.05200
C1645       C  0.75750241  0.44111510  0.93886506     0.00800
C1646       C  0.77227956  0.42437810  0.93751730    -0.07700
C1647       C  0.79119111  0.42309755  0.95200869     0.62700
H1648       H  0.78082424  0.39635414  0.92018348     0.13400
H1649       H  0.73052918  0.45609672  0.92487620     0.13400
C1650       C  0.72168571  0.43157958  0.89210946     0.62900
F1651       F  0.80453928  0.40659252  0.94666134    -0.22200
F1652       F  0.78475616  0.41990866  0.97240855    -0.19600
F1653       F  0.80248406  0.44176811  0.95082620    -0.19300
F1654       F  0.71885143  0.41468408  0.87874166    -0.19300
F1655       F  0.72624696  0.44938204  0.88031448    -0.19600
F1656       F  0.70293144  0.43490603  0.90261472    -0.22300
C1657       C  0.06032313  0.64252735  0.70175268    -0.05100
C1658       C  0.04799430  0.65677010  0.71351034     0.00800
C1659       C  0.05422132  0.66135431  0.73447575    -0.07800
C1660       C  0.07217303  0.65110702  0.74270410    -0.05200
C1661       C  0.08424963  0.63701242  0.73076053     0.00800
C1662       C  0.07859205  0.63300771  0.70974074    -0.07700
C1663       C  0.09126615  0.61941635  0.69467295     0.62700
H1664       H  0.05608818  0.63918608  0.68566380     0.13400
H1665       H  0.07714999  0.65419304  0.75860932     0.13400
C1666       C  0.04226450  0.67677853  0.74834695     0.62900
F1667       F  0.07922917  0.60227158  0.68859054    -0.22200
F1668       F  0.10994994  0.61198010  0.70293730    -0.19600
F1669       F  0.09612806  0.63127119  0.67710954    -0.19300
F1670       F  0.02143709  0.67076349  0.74972326    -0.19300
F1671       F  0.04360885  0.69703503  0.74016940    -0.19600
F1672       F  0.05028474  0.67736466  0.76848496    -0.22300
C1673       C  0.12585246  0.57998701  0.78498287    -0.05100
C1674       C  0.13160829  0.58375365  0.76418534     0.00800
C1675       C  0.14592596  0.56986217  0.75416142    -0.07800
C1676       C  0.15450848  0.55290775  0.76570753    -0.05200
C1677       C  0.14935428  0.54936434  0.78685632     0.00800
C1678       C  0.13446370  0.56310689  0.79666676    -0.07700
C1679       C  0.12797142  0.56069211  0.81945087     0.62700
H1680       H  0.11492319  0.59090621  0.79223054     0.13400
H1681       H  0.16546546  0.54220697  0.75816596     0.13400
C1682       C  0.15178626  0.57253248  0.73124666     0.62900
F1683       F  0.11473702  0.57688354  0.82590855    -0.22200
F1684       F  0.14558499  0.56107626  0.83216318    -0.19600
F1685       F  0.11730673  0.54180695  0.82215741    -0.19300
F1686       F  0.16100429  0.59204478  0.72793845    -0.19300
F1687       F  0.13395360  0.57096839  0.71904194    -0.19600
F1688       F  0.16585794  0.55713856  0.72464527    -0.22300
C1689       C  0.08473097  0.57829072  0.73209696    -0.05100
C1690       C  0.08635299  0.59235548  0.74889646     0.00800
C1691       C  0.07078789  0.59225093  0.76478050    -0.07800
C1692       C  0.05467410  0.57708456  0.76372727    -0.05200
C1693       C  0.05344203  0.56262461  0.74712181     0.00800
C1694       C  0.06819626  0.56373157  0.73056216    -0.07700
C1695       C  0.06606277  0.55023900  0.71099410     0.62700
H1696       H  0.09643446  0.57908377  0.71993074     0.13400
H1697       H  0.04299605  0.57637964  0.77608430     0.13400
C1698       C  0.07027002  0.60759335  0.78301600     0.62900
F1699       F  0.08057336  0.55588524  0.69582424    -0.22200
F1700       F  0.04616403  0.55286675  0.70261744    -0.19600
F1701       F  0.06921316  0.52910450  0.71567754    -0.19300
F1702       F  0.05222035  0.61982888  0.78168481    -0.19300
F1703       F  0.08740312  0.62098759  0.78357963    -0.19600
F1704       F  0.06982237  0.59631290  0.80158831    -0.22300
C1705       C  0.06668232  0.37492064  0.72938049    -0.05100
C1706       C  0.08354942  0.38023873  0.71616446     0.00800
C1707       C  0.08195866  0.37582585  0.69443615    -0.07800
C1708       C  0.06345200  0.36641424  0.68686298    -0.05200
C1709       C  0.04748694  0.35925731  0.70026454     0.00800
C1710       C  0.04879693  0.36406941  0.72189988    -0.07700
C1711       C  0.03138240  0.35802146  0.73700660     0.62700
H1712       H  0.06815808  0.37832188  0.74592407     0.13400
H1713       H  0.06199572  0.36359675  0.67021082     0.13400
C1714       C  0.09912345  0.37994666  0.67838388     0.62900
F1715       F  0.03419866  0.36721746  0.75646235    -0.22200
F1716       F  0.03107730  0.33628004  0.73966937    -0.19600
F1717       F  0.01215249  0.36473273  0.72927110    -0.19300
F1718       F  0.11694850  0.38912193  0.68657231    -0.19300
F1719       F  0.09137570  0.39315968  0.66289355    -0.19600
F1720       F  0.10499380  0.36092575  0.66936973    -0.22300
C1721       C  0.13337266  0.44459976  0.75112392    -0.05100
C1722       C  0.13169353  0.42422020  0.75981444     0.00800
C1723       C  0.13673175  0.42109853  0.78120944    -0.07800
C1724       C  0.14498620  0.43821127  0.79265941    -0.05200
C1725       C  0.14800816  0.45818143  0.78354297     0.00800
C1726       C  0.14116989  0.46180022  0.76276316    -0.07700
C1727       C  0.14147427  0.48384021  0.75320192     0.62700
H1728       H  0.12883412  0.44690516  0.73497453     0.13400
H1729       H  0.14976328  0.43591436  0.80870040     0.13400
C1730       C  0.13317290  0.39997814  0.79207620     0.62900
F1731       F  0.13114405  0.48443171  0.73413246    -0.22200
F1732       F  0.16198614  0.49031088  0.75005405    -0.19600
F1733       F  0.13149670  0.49795896  0.76648528    -0.19300
F1734       F  0.11284997  0.39308614  0.78854668    -0.19300
F1735       F  0.13599824  0.40149794  0.81350557    -0.19600
F1736       F  0.14719459  0.38506003  0.78458107    -0.22300
C1737       C  0.06805738  0.45215098  0.72562439    -0.05100
C1738       C  0.05747034  0.45372063  0.74473550     0.00800
C1739       C  0.06291830  0.44022776  0.76156145    -0.07800
C1740       C  0.07854153  0.42482809  0.75828481    -0.05200
C1741       C  0.08890623  0.42300369  0.73901806     0.00800
C1742       C  0.08422049  0.43738492  0.72263412    -0.07700
C1743       C  0.09594556  0.43826803  0.70202984     0.62700
H1744       H  0.06378718  0.46282373  0.71298711     0.13400
H1745       H  0.08268964  0.41385263  0.77062735     0.13400
C1746       C  0.05205991  0.44189364  0.78264314     0.62900
F1747       F  0.10150796  0.45901438  0.69772153    -0.22200
F1748       F  0.08295237  0.43104744  0.68624862    -0.19600
F1749       F  0.11420163  0.42643354  0.70217605    -0.19300
F1750       F  0.03111946  0.43642496  0.78058956    -0.19300
F1751       F  0.05338405  0.46239941  0.79010768    -0.19600
F1752       F  0.06117225  0.42859798  0.79734495    -0.22300
C1753       C  0.93604085  0.63662253  0.74230626    -0.05100
C1754       C  0.91767381  0.63390262  0.73042259     0.00800
C1755       C  0.91790980  0.63885036  0.70876836    -0.07800
C1756       C  0.93634989  0.64742656  0.70004304    -0.05200
C1757       C  0.95429380  0.65123838  0.71220358     0.00800
C1758       C  0.95445385  0.64524109  0.73354451    -0.07700
C1759       C  0.97401137  0.64767495  0.74688629     0.62700
H1760       H  0.93568103  0.63244897  0.75872721     0.13400
H1761       H  0.93668247  0.65192861  0.68368275     0.13400
C1762       C  0.89900423  0.63490635  0.69478502     0.62900
F1763       F  0.97169609  0.63819903  0.76630735    -0.22200
F1764       F  0.97810448  0.66893730  0.74996542    -0.19600
F1765       F  0.99098870  0.63826185  0.73698078    -0.19300
F1766       F  0.88277840  0.64845348  0.70010479    -0.19300
F1767       F  0.89233923  0.61418855  0.69695863    -0.19600
F1768       F  0.90371865  0.63824670  0.67388049    -0.22300
C1769       C  0.86958372  0.56775478  0.76025929    -0.05100
C1770       C  0.86973774  0.58693380  0.77137114     0.00800
C1771       C  0.86067868  0.58764348  0.79172616    -0.07800
C1772       C  0.85133698  0.56916205  0.79981689    -0.05200
C1773       C  0.85088549  0.55016455  0.78849096     0.00800
C1774       C  0.86043979  0.54928451  0.76853649    -0.07700
C1775       C  0.86085318  0.52895721  0.75600991     0.62700
H1776       H  0.87609916  0.56749815  0.74461725     0.13400
H1777       H  0.84417673  0.56959368  0.81522766     0.13400
C1778       C  0.86047146  0.60697147  0.80590490     0.62900
F1779       F  0.87302857  0.53080197  0.73812857    -0.22200
F1780       F  0.84057901  0.52394178  0.75005652    -0.19600
F1781       F  0.86914785  0.51271764  0.76804792    -0.19300
F1782       F  0.83987576  0.61330558  0.80914492    -0.19300
F1783       F  0.87158565  0.62398001  0.79811096    -0.19600
F1784       F  0.86927481  0.60162709  0.82500125    -0.22300
C1785       C  0.91711868  0.57985162  0.73276822    -0.05100
C1786       C  0.91363565  0.59079276  0.75151740     0.00800
C1787       C  0.92542332  0.58543814  0.76957654    -0.07800
C1788       C  0.94001489  0.56874855  0.76829866    -0.05200
C1789       C  0.94368287  0.55804568  0.74944353     0.00800
C1790       C  0.93208627  0.56352927  0.73135075    -0.07700
C1791       C  0.93567040  0.55226423  0.71068147     0.62700
H1792       H  0.90780064  0.58419762  0.71927717     0.13400
H1793       H  0.94921776  0.56448419  0.78196384     0.13400
C1794       C  0.92373501  0.59709518  0.79023452     0.62900
F1795       F  0.92289363  0.56026854  0.69499077    -0.22200
F1796       F  0.93133268  0.53092039  0.71291666    -0.19600
F1797       F  0.95636410  0.55467701  0.70445882    -0.19300
F1798       F  0.91220683  0.61560055  0.78881835    -0.19300
F1799       F  0.94366154  0.60243017  0.79714510    -0.19600
F1800       F  0.91441305  0.58398707  0.80488294    -0.22300
C1801       C  0.94684567  0.34056638  0.72185587    -0.05100
C1802       C  0.95603233  0.35256254  0.70567501     0.00800
C1803       C  0.94837600  0.37348002  0.70200083    -0.07800
C1804       C  0.93205018  0.38137579  0.71480789    -0.05200
C1805       C  0.92336061  0.36943887  0.73122048     0.00800
C1806       C  0.93102118  0.34864442  0.73494147    -0.07700
C1807       C  0.92255682  0.33395879  0.75187058     0.62700
H1808       H  0.95208105  0.32441067  0.72439191     0.13400
H1809       H  0.92544108  0.39684739  0.71163329     0.13400
C1810       C  0.95701418  0.38755181  0.68471841     0.62900
F1811       F  0.93867957  0.32172456  0.76009410    -0.22200
F1812       F  0.90773314  0.32062653  0.74314959    -0.19600
F1813       F  0.91354950  0.34475454  0.76839189    -0.19300
F1814       F  0.95273491  0.37863040  0.66542946    -0.19300
F1815       F  0.97850484  0.38992744  0.68714425    -0.19600
F1816       F  0.94806553  0.40759097  0.68497712    -0.22300
C1817       C  0.86292978  0.43192894  0.75694442    -0.05100
C1818       C  0.87675460  0.42022481  0.76948447     0.00800
C1819       C  0.88005143  0.42634381  0.79048545    -0.07800
C1820       C  0.86944227  0.44430608  0.79816450    -0.05200
C1821       C  0.85509373  0.45593669  0.78585384     0.00800
C1822       C  0.85180877  0.44958785  0.76467238    -0.07700
C1823       C  0.83655930  0.46084240  0.75009310     0.62700
H1824       H  0.86044003  0.42658119  0.74103944     0.13400
H1825       H  0.87194574  0.44902754  0.81424218     0.13400
C1826       C  0.89444879  0.41389898  0.80490476     0.62900
F1827       F  0.83788135  0.45334084  0.72977750    -0.22200
F1828       F  0.84103195  0.48220411  0.74955128    -0.19600
F1829       F  0.81613596  0.45777308  0.75689343    -0.19300
F1830       F  0.91499172  0.41698243  0.79882662    -0.19300
F1831       F  0.88972915  0.39253013  0.80409395    -0.19600
F1832       F  0.89259976  0.42037402  0.82551708    -0.22300
C1833       C  0.91586091  0.43130657  0.73713541    -0.05100
C1834       C  0.92049652  0.41433102  0.75055404     0.00800
C1835       C  0.94033642  0.41341092  0.76059897    -0.07800
C1836       C  0.95417785  0.43046704  0.75797543    -0.05200
C1837       C  0.94947331  0.44763307  0.74469322     0.00800
C1838       C  0.93046849  0.44740684  0.73308413    -0.07700
C1839       C  0.92506498  0.46313630  0.71589011     0.62700
H1840       H  0.90098228  0.43127840  0.72885612     0.13400
H1841       H  0.96893060  0.43042641  0.76649698     0.13400
C1842       C  0.94774615  0.39509739  0.77417222     0.62900
F1843       F  0.91802684  0.45227326  0.69845058    -0.22200
F1844       F  0.94208352  0.47519697  0.70968161    -0.19600
F1845       F  0.90919282  0.47645809  0.72273071    -0.19300
F1846       F  0.96338591  0.38411665  0.76370528    -0.19300
F1847       F  0.93182346  0.38119240  0.77920672    -0.19600
F1848       F  0.95596414  0.40277285  0.79272235    -0.22300
C1849       C  0.29865455  0.64855312  0.06252341    -0.05100
C1850       C  0.28791906  0.64944899  0.04340267     0.00800
C1851       C  0.26823109  0.63916403  0.04151577    -0.07800
C1852       C  0.25968748  0.62878052  0.05912055    -0.05200
C1853       C  0.27019476  0.62833979  0.07845286     0.00800
C1854       C  0.29031197  0.63802390  0.08007309    -0.07700
C1855       C  0.30370462  0.63789390  0.09975986     0.62700
H1856       H  0.31379793  0.65634074  0.06379790     0.13400
H1857       H  0.24422535  0.62171191  0.05813044     0.13400
C1858       C  0.25622507  0.63937323  0.02108163     0.62900
F1859       F  0.32430795  0.63294469  0.09466106    -0.22200
F1860       F  0.29715644  0.62324643  0.11441856    -0.19600
F1861       F  0.30322523  0.65783735  0.10868015    -0.19300
F1862       F  0.26895288  0.63180126  0.00517784    -0.19300
F1863       F  0.25002048  0.65989337  0.01662654    -0.19600
F1864       F  0.23839678  0.62683013  0.02193630    -0.22300
C1865       C  0.23936178  0.56252014  0.12931528    -0.05100
C1866       C  0.22773757  0.58100297  0.12525726     0.00800
C1867       C  0.20580876  0.58121200  0.12936306    -0.07800
C1868       C  0.19642135  0.56294581  0.13795247    -0.05200
C1869       C  0.20835248  0.54506892  0.14356873     0.00800
C1870       C  0.23009718  0.54449997  0.13852116    -0.07700
C1871       C  0.24334873  0.52475590  0.14213079     0.62700
H1872       H  0.25599122  0.56250969  0.12574545     0.13400
H1873       H  0.17969480  0.56279074  0.14105918     0.13400
C1874       C  0.19233820  0.60064929  0.12502077     0.62900
F1875       F  0.26315309  0.52659611  0.13327958    -0.22200
F1876       F  0.23359586  0.50740710  0.13319343    -0.19600
F1877       F  0.24590376  0.52126584  0.16333020    -0.19300
F1878       F  0.19568963  0.60782343  0.10485767    -0.19300
F1879       F  0.19736817  0.61653938  0.13898160    -0.19600
F1880       F  0.17109395  0.59633531  0.12714961    -0.22300
C1881       C  0.23022829  0.58048033  0.07207946    -0.05100
C1882       C  0.24923359  0.58420821  0.08253901     0.00800
C1883       C  0.26736953  0.57227978  0.07726349    -0.07800
C1884       C  0.26592389  0.55732944  0.06108566    -0.05200
C1885       C  0.24692478  0.55374738  0.05057574     0.00800
C1886       C  0.22875148  0.56544337  0.05599669    -0.07700
C1887       C  0.20806311  0.56218555  0.04461609     0.62700
H1888       H  0.21667486  0.58989290  0.07635444     0.13400
H1889       H  0.27971880  0.54832910  0.05648659     0.13400
C1890       C  0.28844881  0.57535132  0.08789609     0.62900
F1891       F  0.20188244  0.54126264  0.04633541    -0.22200
F1892       F  0.21044134  0.56726196  0.02369911    -0.19600
F1893       F  0.19218650  0.57477975  0.05274828    -0.19300
F1894       F  0.28616558  0.58237864  0.10822771    -0.19300
F1895       F  0.30013564  0.58988654  0.07666760    -0.19600
F1896       F  0.29947931  0.55641596  0.08863794    -0.22300
C1897       C  0.28741543  0.37927219  0.06535723    -0.05100
C1898       C  0.27120284  0.36792986  0.07515869     0.00800
C1899       C  0.26542151  0.34787352  0.06704020    -0.07800
C1900       C  0.27647068  0.33980065  0.04969896    -0.05200
C1901       C  0.29286655  0.35103196  0.03984497     0.00800
C1902       C  0.29807000  0.37154415  0.04756103    -0.07700
C1903       C  0.31458334  0.38552637  0.03729891     0.62700
H1904       H  0.29221600  0.39411595  0.07218991     0.13400
H1905       H  0.27253021  0.32415409  0.04403020     0.13400
C1906       C  0.24813489  0.33443692  0.07674629     0.62900
F1907       F  0.31508158  0.40561416  0.04599183    -0.22200
F1908       F  0.31013871  0.38786893  0.01622480    -0.19600
F1909       F  0.33431784  0.37658748  0.03980741    -0.19300
F1910       F  0.24135934  0.31881209  0.06315210    -0.19300
F1911       F  0.23085834  0.34670180  0.08175758    -0.19600
F1912       F  0.25561466  0.32467594  0.09461996    -0.22300
C1913       C  0.23275232  0.44884745  0.14770250    -0.05100
C1914       C  0.21253582  0.45413744  0.14016368     0.00800
C1915       C  0.20480969  0.44312834  0.12228733    -0.07800
C1916       C  0.21632620  0.42562519  0.11469353    -0.05200
C1917       C  0.23572974  0.41958898  0.12326443     0.00800
C1918       C  0.24471325  0.43214175  0.13922219    -0.07700
C1919       C  0.26709056  0.42846280  0.14681809     0.62700
H1920       H  0.23923817  0.45781846  0.16058068     0.13400
H1921       H  0.20996693  0.41619905  0.10215710     0.13400
C1922       C  0.18480145  0.44961257  0.11090047     0.62900
F1923       F  0.26849190  0.40949515  0.15751725    -0.22200
F1924       F  0.27372368  0.44440216  0.16012204    -0.19600
F1925       F  0.28065915  0.42801612  0.12991841    -0.19300
F1926       F  0.18608452  0.47069676  0.10506192    -0.19300
F1927       F  0.16751965  0.44657266  0.12365979    -0.19600
F1928       F  0.18169008  0.43789297  0.09286909    -0.22300
C1929       C  0.23644081  0.42927149  0.04824041    -0.05100
C1930       C  0.25257651  0.44435636  0.04801235     0.00800
C1931       C  0.26912346  0.44309350  0.06274817    -0.07800
C1932       C  0.26794338  0.42760029  0.07843076    -0.05200
C1933       C  0.25168408  0.41267612  0.07886481     0.00800
C1934       C  0.23571068  0.41327601  0.06344694    -0.07700
C1935       C  0.21768182  0.39765170  0.06225821     0.62700
H1936       H  0.22415243  0.43018180  0.03649721     0.13400
H1937       H  0.28013155  0.42643615  0.09017285     0.13400
C1938       C  0.28840851  0.45719554  0.06122840     0.62900
F1939       F  0.19885212  0.40855697  0.06041433    -0.22200
F1940       F  0.21627751  0.38482275  0.07968016    -0.19600
F1941       F  0.22030533  0.38498418  0.04481062    -0.19300
F1942       F  0.28297718  0.47816224  0.06427483    -0.19300
F1943       F  0.29743445  0.45498852  0.04165541    -0.19600
F1944       F  0.30341412  0.45186571  0.07604224    -0.22300
C1945       C  0.26246004  0.63990804  0.92511060    -0.05100
C1946       C  0.27629471  0.62774627  0.91303146     0.00800
C1947       C  0.29745064  0.62539897  0.91960895    -0.07800
C1948       C  0.30386493  0.63519812  0.93834029    -0.05200
C1949       C  0.29032538  0.64822064  0.95018516     0.00800
C1950       C  0.26905264  0.65064631  0.94328730    -0.07700
C1951       C  0.25314613  0.66461397  0.95451138     0.62700
H1952       H  0.24640633  0.64151786  0.91964850     0.13400
H1953       H  0.32008335  0.63329957  0.94324679     0.13400
C1954       C  0.31408565  0.61309316  0.90761623     0.62900
F1955       F  0.23301319  0.66226289  0.94657219    -0.22200
F1956       F  0.25866257  0.68568406  0.95229246    -0.19600
F1957       F  0.25242154  0.65932615  0.97542533    -0.19300
F1958       F  0.30692312  0.60476117  0.88897113    -0.19300
F1959       F  0.32130990  0.59657530  0.91993641    -0.19600
F1960       F  0.33075765  0.62640383  0.90312945    -0.22300
C1961       C  0.24135679  0.55948041  0.86919740    -0.05100
C1962       C  0.23522282  0.58059799  0.86532406     0.00800
C1963       C  0.21679692  0.58447046  0.85322112    -0.07800
C1964       C  0.20593105  0.56713497  0.84466374    -0.05200
C1965       C  0.21223591  0.54622498  0.84838311     0.00800
C1966       C  0.23002804  0.54216051  0.86103075    -0.07700
C1967       C  0.23705650  0.51960817  0.86554166     0.62700
H1968       H  0.25558679  0.55658136  0.87801499     0.13400
H1969       H  0.19242101  0.56992617  0.83465346     0.13400
C1970       C  0.20836141  0.60643770  0.84812057     0.62900
F1971       F  0.25421856  0.51896417  0.87887103    -0.22200
F1972       F  0.24260928  0.50968444  0.84706579    -0.19600
F1973       F  0.22078014  0.50852547  0.87483221    -0.19300
F1974       F  0.21548414  0.61242222  0.82854898    -0.19300
F1975       F  0.21432960  0.62148281  0.86258732    -0.19600
F1976       F  0.18657721  0.60622056  0.84785203    -0.22300
C1977       C  0.27030168  0.57331103  0.91521651    -0.05100
C1978       C  0.25295573  0.58599882  0.91007724     0.00800
C1979       C  0.23381039  0.58370520  0.92114329    -0.07800
C1980       C  0.23253057  0.56804237  0.93666967    -0.05200
C1981       C  0.24982704  0.55515735  0.94152135     0.00800
C1982       C  0.26912579  0.55781221  0.93084506    -0.07700
C1983       C  0.28826876  0.54423311  0.93580528     0.62700
H1984       H  0.28463447  0.57533168  0.90633896     0.13400
H1985       H  0.21792245  0.56586967  0.94517508     0.13400
C1986       C  0.21451339  0.59733700  0.91751513     0.62900
F1987       F  0.30570596  0.55035199  0.92432668    -0.22200
F1988       F  0.28412033  0.52329219  0.93114853    -0.19600
F1989       F  0.29325495  0.54592129  0.95678826    -0.19300
F1990       F  0.19825223  0.58473547  0.91039133    -0.19300
F1991       F  0.21784089  0.61335721  0.90321346    -0.19600
F1992       F  0.20853895  0.60660975  0.93620511    -0.22300
C1993       C  0.26253523  0.36967696  0.93000068    -0.05100
C1994       C  0.27436240  0.37234774  0.91162636     0.00800
C1995       C  0.29603738  0.36693530  0.91160007    -0.07800
C1996       C  0.30480174  0.35802641  0.92979023    -0.05200
C1997       C  0.29268800  0.35441911  0.94776241     0.00800
C1998       C  0.27137714  0.36088739  0.94823510    -0.07700
C1999       C  0.25817456  0.35884760  0.96793289     0.62700
H2000       H  0.24608911  0.37397568  0.92981699     0.13400
H2001       H  0.32115626  0.35312977  0.92992109     0.13400
C2002       C  0.31003331  0.37078594  0.89270352     0.62900
F2003       F  0.23899247  0.36911034  0.96594238    -0.22200
F2004       F  0.26870909  0.36776015  0.98468644    -0.19600
F2005       F  0.25432750  0.33771431  0.97210776    -0.19300
F2006       F  0.33096639  0.36647251  0.89703276    -0.19300
F2007       F  0.30853608  0.39175669  0.88657075    -0.19600
F2008       F  0.30403112  0.35787246  0.87635536    -0.22300
C2009       C  0.21276368  0.42108610  0.86582061    -0.05100
C2010       C  0.23472325  0.42087983  0.86421677     0.00800
C2011       C  0.24510031  0.43792464  0.85417002    -0.07800
C2012       C  0.23287579  0.45421595  0.84532471    -0.05200
C2013       C  0.21081824  0.45454882  0.84690460     0.00800
C2014       C  0.20056024  0.43799331  0.85805862    -0.07700
C2015       C  0.17693181  0.43776578  0.86165411     0.62700
H2016       H  0.20517007  0.40770751  0.87318258     0.13400
H2017       H  0.24078022  0.46699214  0.83715240     0.13400
C2018       C  0.26881233  0.43986641  0.85201462     0.62900
F2019       F  0.17033877  0.41936019  0.87146971    -0.22200
F2020       F  0.16652050  0.43921675  0.84276941    -0.19600
F2021       F  0.17125665  0.45462873  0.87426644    -0.19300
F2022       F  0.27981296  0.42339247  0.86115839    -0.19300
F2023       F  0.27524951  0.45855114  0.86130892    -0.19600
F2024       F  0.27404779  0.44049217  0.83101678    -0.22300
C2025       C  0.27053854  0.42812960  0.91178138    -0.05100
C2026       C  0.25277310  0.41553304  0.90828594     0.00800
C2027       C  0.23456806  0.41826322  0.92081969    -0.07800
C2028       C  0.23462360  0.43412942  0.93610953    -0.05200
C2029       C  0.25231169  0.44680110  0.93949885     0.00800
C2030       C  0.27065193  0.44387591  0.92728669    -0.07700
C2031       C  0.29014613  0.45727938  0.93069295     0.62700
H2032       H  0.28429632  0.42547238  0.90215856     0.13400
H2033       H  0.22076135  0.43652577  0.94573803     0.13400
C2034       C  0.21491531  0.40477936  0.91922283     0.62900
F2035       F  0.30634621  0.45152519  0.91735738    -0.22200
F2036       F  0.29718074  0.45491799  0.95103122    -0.19600
F2037       F  0.28548221  0.47836368  0.92709202    -0.19300
F2038       F  0.21684261  0.38827131  0.90518641    -0.19300
F2039       F  0.19817704  0.41743196  0.91319367    -0.19600
F2040       F  0.21045304  0.39615300  0.93863213    -0.22300
C2041       C  0.63427640  0.25117004  0.05121322    -0.05100
C2042       C  0.62943441  0.26205570  0.06971367     0.00800
C2043       C  0.63303520  0.28420175  0.07079404    -0.07800
C2044       C  0.64170338  0.29464398  0.05326025    -0.05200
C2045       C  0.64752155  0.28357450  0.03508758     0.00800
C2046       C  0.64349683  0.26147255  0.03389255    -0.07700
C2047       C  0.64875033  0.24877003  0.01440296     0.62700
H2048       H  0.63144245  0.23428724  0.05070360     0.13400
H2049       H  0.64491051  0.31147931  0.05397017     0.13400
C2050       C  0.62813939  0.29672973  0.09049571     0.62900
F2051       F  0.64056353  0.22847811  0.01532452    -0.22200
F2052       F  0.67033133  0.24704589  0.01226252    -0.19600
F2053       F  0.64044572  0.25868458  0.99692411    -0.19300
F2054       F  0.60775533  0.29283830  0.09696347    -0.19300
F2055       F  0.63014097  0.31833471  0.08729485    -0.19600
F2056       F  0.64189442  0.29091641  0.10623850    -0.22300
C2057       C  0.57854860  0.19938864  0.11427251    -0.05100
C2058       C  0.58042879  0.22141712  0.11642712     0.00800
C2059       C  0.56568020  0.23246440  0.12900454    -0.07800
C2060       C  0.54918615  0.22107960  0.13850853    -0.05200
C2061       C  0.54701390  0.19902361  0.13621508     0.00800
C2062       C  0.56215641  0.18788362  0.12396631    -0.07700
C2063       C  0.56178479  0.16390854  0.12183955     0.62700
H2064       H  0.59045937  0.19113385  0.10532890     0.13400
H2065       H  0.53764663  0.22949497  0.14781286     0.13400
C2066       C  0.56707641  0.25625739  0.13227669     0.62900
F2067       F  0.57945516  0.15625358  0.11164089    -0.22200
F2068       F  0.54434759  0.15779948  0.11043388    -0.19600
F2069       F  0.56117756  0.15467797  0.14147397    -0.19300
F2070       F  0.56271111  0.26649057  0.11370822    -0.19300
F2071       F  0.58695781  0.26187738  0.13899077    -0.19600
F2072       F  0.55281587  0.26331627  0.14710927    -0.22300
C2073       C  0.57446728  0.25941825  0.06935665    -0.05100
C2074       C  0.58625091  0.24086992  0.07213595     0.00800
C2075       C  0.58308377  0.22340340  0.05860845    -0.07800
C2076       C  0.56704080  0.22471088  0.04358194    -0.05200
C2077       C  0.55454391  0.24292409  0.04154841     0.00800
C2078       C  0.55832291  0.26070699  0.05445138    -0.07700
C2079       C  0.54532382  0.28085212  0.05257790     0.62700
H2080       H  0.57795339  0.27285203  0.07918737     0.13400
H2081       H  0.56428806  0.21141417  0.03320799     0.13400
C2082       C  0.59647776  0.20346729  0.05871174     0.62900
F2083       F  0.55302072  0.29683513  0.06524688    -0.22200
F2084       F  0.52479049  0.27687602  0.05848487    -0.19600
F2085       F  0.54557307  0.28808214  0.03215137    -0.19300
F2086       F  0.58384526  0.18611588  0.06272112    -0.19300
F2087       F  0.61240359  0.20386368  0.07339778    -0.19600
F2088       F  0.60563237  0.20097059  0.03922066    -0.22300
C2089       C  0.38094963  0.27964536  0.06188020    -0.05100
C2090       C  0.37097743  0.26100681  0.06844428     0.00800
C2091       C  0.35279755  0.25400781  0.05769295    -0.07800
C2092       C  0.34477598  0.26655238  0.04135809    -0.05200
C2093       C  0.35412137  0.28581776  0.03522258     0.00800
C2094       C  0.37308133  0.29219918  0.04537882    -0.07700
C2095       C  0.38500102  0.31222838  0.03949665     0.62700
H2096       H  0.39465300  0.28480533  0.07049684     0.13400
H2097       H  0.33066085  0.26116872  0.03349856     0.13400
C2098       C  0.34103251  0.23362311  0.06243570     0.62900
F2099       F  0.40326760  0.31459131  0.05105738    -0.22200
F2100       F  0.37255191  0.32985155  0.04318278    -0.19600
F2101       F  0.39072270  0.31146527  0.01862036    -0.19300
F2102       F  0.32068466  0.23851175  0.06842649    -0.19300
F2103       F  0.35007287  0.22159007  0.07806167    -0.19600
F2104       F  0.34028418  0.22134439  0.04452381    -0.22300
C2105       C  0.42682744  0.20824882  0.11058537    -0.05100
C2106       C  0.42063929  0.22763587  0.11919482     0.00800
C2107       C  0.43251824  0.23646477  0.13571533    -0.07800
C2108       C  0.44942000  0.22464683  0.14402579    -0.05200
C2109       C  0.45508622  0.20452119  0.13615886     0.00800
C2110       C  0.44395977  0.19654724  0.11843131    -0.07700
C2111       C  0.44958420  0.17580144  0.10764471     0.62700
H2112       H  0.41766069  0.20200832  0.09780700     0.13400
H2113       H  0.45813235  0.23106009  0.15709782     0.13400
C2114       C  0.42765605  0.25836836  0.14434205     0.62900
F2115       F  0.43725058  0.17213748  0.09016571    -0.22200
F2116       F  0.44659001  0.15901393  0.12125782    -0.19600
F2117       F  0.47029920  0.17636003  0.10100657    -0.19300
F2118       F  0.40879069  0.25806475  0.15506018    -0.19300
F2119       F  0.42635393  0.27286952  0.12815041    -0.19600
F2120       F  0.44310855  0.26524291  0.15799157    -0.22300
C2121       C  0.43039647  0.25921092  0.07494324    -0.05100
C2122       C  0.41530818  0.24310890  0.07417903     0.00800
C2123       C  0.41556944  0.22835661  0.05751702    -0.07800
C2124       C  0.43083126  0.23059924  0.04188372    -0.05200
C2125       C  0.44582754  0.24681786  0.04255132     0.00800
C2126       C  0.44540566  0.26175795  0.05908517    -0.07700
C2127       C  0.45992668  0.28076520  0.06067357     0.62700
H2128       H  0.42978319  0.27048952  0.08768484     0.13400
H2129       H  0.43136790  0.21923990  0.02916253     0.13400
C2130       C  0.40064545  0.20977790  0.05559494     0.62900
F2131       F  0.44803008  0.29888193  0.06383524    -0.22200
F2132       F  0.47193520  0.28397827  0.04293353    -0.19600
F2133       F  0.47325058  0.27803253  0.07756892    -0.19300
F2134       F  0.38790010  0.21273924  0.03830177    -0.19300
F2135       F  0.38808324  0.20711220  0.07298034    -0.19600
F2136       F  0.41214430  0.19132048  0.05291248    -0.22300
C2137       C  0.61711847  0.28154678  0.91960461    -0.05100
C2138       C  0.62849412  0.26642199  0.90809433     0.00800
C2139       C  0.64917649  0.26115191  0.91472102    -0.07800
C2140       C  0.65799654  0.27209972  0.93173809    -0.05200
C2141       C  0.64665511  0.28718931  0.94342979     0.00800
C2142       C  0.62542432  0.29150290  0.93757235    -0.07700
C2143       C  0.61130579  0.30638765  0.94996402     0.62700
H2144       H  0.60186167  0.28630993  0.91395414     0.13400
H2145       H  0.67415345  0.26861599  0.93596331     0.13400
C2146       C  0.66292608  0.24444950  0.90432231     0.62900
F2147       F  0.59066106  0.30577877  0.94304373    -0.22200
F2148       F  0.61834071  0.32700794  0.94792504    -0.19600
F2149       F  0.61129837  0.30056776  0.97084761    -0.19300
F2150       F  0.67800663  0.25441617  0.89223487    -0.19300
F2151       F  0.65173131  0.23056943  0.89191809    -0.19600
F2152       F  0.67295391  0.23242651  0.91948061    -0.22300
C2153       C  0.56135502  0.24129127  0.85565833    -0.05100
C2154       C  0.58067971  0.23046056  0.85659406     0.00800
C2155       C  0.58229712  0.20994839  0.84746900    -0.07800
C2156       C  0.56436196  0.20106935  0.83809226    -0.05200
C2157       C  0.54512116  0.21190557  0.83724094     0.00800
C2158       C  0.54345086  0.23233461  0.84618009    -0.07700
C2159       C  0.52281635  0.24447808  0.84592250     0.62700
H2160       H  0.56051121  0.25717093  0.86192536     0.13400
H2161       H  0.56545081  0.18543087  0.83111709     0.13400
C2162       C  0.60216399  0.19646821  0.84697313     0.62900
F2163       F  0.50716191  0.23235341  0.85499347    -0.22200
F2164       F  0.51728462  0.24919137  0.82552087    -0.19600
F2165       F  0.52418466  0.26333223  0.85690116    -0.19300
F2166       F  0.59797562  0.17686703  0.85576438    -0.19300
F2167       F  0.61885125  0.20517841  0.85773184    -0.19600
F2168       F  0.60821321  0.19349041  0.82638751    -0.22300
C2169       C  0.56668276  0.22868764  0.93074914    -0.05100
C2170       C  0.55274525  0.24583893  0.93262535     0.00800
C2171       C  0.55451986  0.26344483  0.91898548    -0.07800
C2172       C  0.57020883  0.26301972  0.90356570    -0.05200
C2173       C  0.58441014  0.24610070  0.90193530     0.00800
C2174       C  0.58262731  0.22854380  0.91552519    -0.07700
C2175       C  0.59734417  0.20976391  0.91374054     0.62700
H2176       H  0.56492928  0.21542622  0.94138448     0.13400
H2177       H  0.57198412  0.27618469  0.89283465     0.13400
C2178       C  0.54045424  0.28283966  0.92110195     0.62900
F2179       F  0.59322452  0.19452458  0.92879393    -0.22200
F2180       F  0.61790550  0.21634420  0.91614218    -0.19600
F2181       F  0.59498777  0.20051235  0.89434944    -0.19300
F2182       F  0.54182381  0.29078261  0.94120705    -0.28900
F2183       F  0.51981039  0.27758225  0.91690669    -0.19600
F2184       F  0.54622273  0.29878103  0.90735120    -0.22300
C2185       C  0.36147086  0.30334145  0.92904354    -0.05100
C2186       C  0.35170867  0.29074343  0.94437391     0.00800
C2187       C  0.35185666  0.26835506  0.94205110    -0.07800
C2188       C  0.36096365  0.25952330  0.92395987    -0.05200
C2189       C  0.37032351  0.27212540  0.90851048     0.00800
C2190       C  0.37072608  0.29442625  0.91103800    -0.07700
C2191       C  0.38073693  0.30877717  0.89476106     0.62700
H2192       H  0.36130139  0.32038453  0.93102291     0.13400
H2193       H  0.36020726  0.24263143  0.92144562     0.13400
C2194       C  0.34281840  0.25369664  0.95864759     0.62900
F2195       F  0.37037116  0.30678511  0.87586995    -0.22200
F2196       F  0.40159014  0.30330192  0.89210766    -0.19600
F2197       F  0.37995910  0.32988838  0.90060030    -0.19300
F2198       F  0.32111571  0.25520523  0.95879017    -0.19300
F2199       F  0.35063399  0.25911220  0.97812540    -0.19600
F2200       F  0.34806617  0.23272781  0.95497505    -0.22300
C2201       C  0.42337638  0.21424601  0.86602199    -0.05100
C2202       C  0.41775850  0.23433092  0.85852274     0.00800
C2203       C  0.43038971  0.24414100  0.84309672    -0.07800
C2204       C  0.44757452  0.23282674  0.83478827    -0.05200
C2205       C  0.45278899  0.21215791  0.84147950     0.00800
C2206       C  0.44080954  0.20296218  0.85805710    -0.07700
C2207       C  0.44595082  0.18138864  0.86741127     0.62700
H2208       H  0.41362335  0.20724761  0.87800600     0.13400
H2209       H  0.45689402  0.24009878  0.82257147     0.13400
C2210       C  0.42582443  0.26646640  0.83532839     0.62900
F2211       F  0.43230773  0.17597462  0.88343475    -0.22200
F2212       F  0.46605993  0.18163518  0.87569131    -0.19600
F2213       F  0.44446671  0.16588384  0.85220576    -0.19300
F2214       F  0.42291724  0.28002754  0.85205781    -0.19300
F2215       F  0.40790041  0.26644721  0.82311448    -0.19600
F2216       F  0.44219919  0.27436527  0.82336853    -0.22300
C2217       C  0.42891356  0.26436332  0.90350029    -0.05100
C2218       C  0.41286211  0.24926246  0.90356359     0.00800
C2219       C  0.41290504  0.23295198  0.91881080    -0.07800
C2220       C  0.42885107  0.23289310  0.93397718    -0.05200
C2221       C  0.44453935  0.24848301  0.93429250     0.00800
C2222       C  0.44441286  0.26480370  0.91903324    -0.07700
C2223       C  0.45982360  0.28315742  0.91838359     0.62700
H2224       H  0.42907784  0.27625990  0.89132695     0.13400
H2225       H  0.42920973  0.22038566  0.94563756     0.13400
C2226       C  0.39710798  0.21499688  0.91959041     0.62900
F2227       F  0.44875523  0.30200425  0.91671348    -0.22200
F2228       F  0.47264709  0.28101401  0.90102616    -0.19600
F2229       F  0.47232557  0.28454769  0.93599528    -0.19300
F2230       F  0.38251135  0.21580408  0.90359601    -0.19300
F2231       F  0.38653406  0.21561659  0.93849271    -0.19600
F2232       F  0.40766926  0.19585649  0.91819698    -0.22300
C2233       C  0.63288929  0.05701339  0.68519097    -0.05100
C2234       C  0.64482117  0.04505336  0.69952814     0.00800
C2235       C  0.64579902  0.05210461  0.72070861    -0.07800
C2236       C  0.63352888  0.06978027  0.72671745    -0.05200
C2237       C  0.62208877  0.08181512  0.71215066     0.00800
C2238       C  0.62268820  0.07591955  0.69077969    -0.07700
C2239       C  0.61396878  0.08906429  0.67288620     0.62700
H2240       H  0.63261868  0.05236478  0.66886657     0.13400
H2241       H  0.63360789  0.07512002  0.74282114     0.13400
C2242       C  0.66004195  0.04180862  0.73690396     0.62900
F2243       F  0.62976039  0.09257234  0.65838454    -0.22200
F2244       F  0.60646970  0.10857453  0.67905358    -0.19600
F2245       F  0.59795666  0.07799085  0.66322593    -0.19300
F2246       F  0.68084873  0.04411991  0.73097740    -0.19300
F2247       F  0.65527271  0.02057404  0.73880156    -0.19600
F2248       F  0.65782245  0.05096227  0.75646727    -0.22300
C2249       C  0.55600083  0.13466915  0.74297243    -0.05100
C2250       C  0.57548599  0.13084869  0.75248547     0.00800
C2251       C  0.57825335  0.13614656  0.77390623    -0.07800
C2252       C  0.56133907  0.14552057  0.78484925    -0.05200
C2253       C  0.54210133  0.14999333  0.77499323     0.00800
C2254       C  0.53919064  0.14408225  0.75384149    -0.07700
C2255       C  0.51830774  0.14739348  0.74286633     0.62700
H2256       H  0.55419676  0.13095275  0.72664951     0.13400
H2257       H  0.56319577  0.15002804  0.80109301     0.13400
C2258       C  0.59882533  0.13182465  0.78526109     0.62900
F2259       F  0.51803355  0.13826728  0.72318976    -0.22200
F2260       F  0.51448524  0.16883103  0.74050553    -0.19600
F2261       F  0.50240203  0.13827409  0.75457204    -0.19300
F2262       F  0.61467220  0.14422323  0.77701088    -0.19300
F2263       F  0.60422243  0.11069098  0.78320425    -0.19600
F2264       F  0.59736968  0.13635808  0.80641088    -0.22300
C2265       C  0.57892254  0.07332861  0.74988024    -0.05100
C2266       C  0.57805172  0.08648638  0.73220510     0.00800
C2267       C  0.56205058  0.08327598  0.71705384    -0.07800
C2268       C  0.54819760  0.06622519  0.71963432    -0.05200
C2269       C  0.54915740  0.05296686  0.73716857     0.00800
C2270       C  0.56438256  0.05678059  0.75289093    -0.07700
C2271       C  0.56476252  0.04394224  0.77298493     0.62700
H2272       H  0.59106610  0.07631051  0.76135937     0.13400
H2273       H  0.53609938  0.06346075  0.70798637     0.13400
C2274       C  0.55824860  0.09742258  0.69824504     0.62900
F2275       F  0.57978267  0.05133971  0.78683046    -0.22200
F2276       F  0.56930277  0.02298190  0.76869478    -0.19600
F2277       F  0.54534770  0.04518285  0.78269434    -0.19300
F2278       F  0.57173150  0.11446506  0.69728414    -0.19300
F2279       F  0.56043927  0.08566949  0.68015375    -0.19600
F2280       F  0.53789681  0.10520833  0.69902938    -0.22300
C2281       C  0.36449146  0.07472385  0.71391874    -0.05100
C2282       C  0.36263900  0.07568059  0.73569045     0.00800
C2283       C  0.35109040  0.05984231  0.74636927    -0.07800
C2284       C  0.34250416  0.04295042  0.73475038    -0.05200
C2285       C  0.34470234  0.04168379  0.71286954     0.00800
C2286       C  0.35555486  0.05819384  0.70217849    -0.07700
C2287       C  0.35684252  0.05923640  0.67844944     0.62700
H2288       H  0.37255578  0.08751646  0.70605712     0.13400
H2289       H  0.33394682  0.03052482  0.74274330     0.13400
C2290       C  0.34781847  0.06075462  0.76988193     0.62900
F2291       F  0.36519979  0.07823800  0.67151758    -0.22200
F2292       F  0.33690872  0.05742381  0.67001230    -0.19600
F2293       F  0.36955848  0.04309853  0.67104437    -0.19300
F2294       F  0.33849811  0.07976164  0.77538842    -0.19300
F2295       F  0.36694865  0.05895590  0.77991954    -0.19600
F2296       F  0.33498553  0.04454099  0.77692455    -0.22300
C2297       C  0.42358318  0.14215687  0.75337755    -0.05100
C2298       C  0.41337559  0.12748745  0.76633990     0.00800
C2299       C  0.42119039  0.12386792  0.78676319    -0.07800
C2300       C  0.43964929  0.13426038  0.79304282    -0.05200
C2301       C  0.44979362  0.14948698  0.78045196     0.00800
C2302       C  0.44138226  0.15367143  0.76012297    -0.07700
C2303       C  0.45054765  0.17030850  0.74553576     0.62700
H2304       H  0.41696953  0.14500998  0.73801455     0.13400
H2305       H  0.44553103  0.13111231  0.80866244     0.13400
C2306       C  0.41045006  0.11010369  0.80308558     0.62900
F2307       F  0.44068843  0.17047605  0.72621394    -0.22200
F2308       F  0.47160946  0.16626240  0.74213882    -0.19600
F2309       F  0.44810567  0.19022989  0.75421163    -0.19300
F2310       F  0.42340536  0.09315570  0.80794533    -0.19300
F2311       F  0.39114573  0.10240546  0.79680815    -0.19600
F2312       F  0.40717823  0.12192345  0.82101746    -0.22300
C2313       C  0.41280614  0.06872606  0.76472443    -0.05100
C2314       C  0.40879041  0.08259316  0.74809735     0.00800
C2315       C  0.42092769  0.08114622  0.72955535    -0.07800
C2316       C  0.43629069  0.06518357  0.72814474    -0.05200
C2317       C  0.44011666  0.05121688  0.74478408     0.00800
C2318       C  0.42855638  0.05319386  0.76358714    -0.07700
C2319       C  0.43316686  0.03933236  0.78249146     0.62700
H2320       H  0.40355260  0.07031269  0.77875405     0.13400
H2321       H  0.44555930  0.06369320  0.71396721     0.13400
C2322       C  0.41856578  0.09587772  0.71094493     0.62900
F2323       F  0.42049840  0.04445033  0.79938342    -0.22200
F2324       F  0.45390196  0.04185507  0.78850303    -0.19600
F2325       F  0.42969587  0.01833819  0.77764998    -0.19300
F2326       F  0.43761474  0.10570192  0.70710751    -0.19300
F2327       F  0.40357702  0.11146435  0.71389059    -0.19600
F2328       F  0.41303971  0.08416139  0.69352009    -0.22300
C2329       C  0.64122089  0.93197643  0.69007820    -0.05100
C2330       C  0.64344552  0.95086576  0.70137547     0.00800
C2331       C  0.63462682  0.95235236  0.72165858    -0.07800
C2332       C  0.62485843  0.93438083  0.73040040    -0.05200
C2333       C  0.62341590  0.91512357  0.71947764     0.00800
C2334       C  0.63136207  0.91400930  0.69869634    -0.07700
C2335       C  0.63000880  0.89463715  0.68468708     0.62700
H2336       H  0.64774711  0.93106069  0.67441368     0.13400
H2337       H  0.61911415  0.93500275  0.74632009     0.13400
C2338       C  0.63546697  0.97284344  0.73397150     0.62900
F2339       F  0.61981600  0.90011888  0.66632584    -0.22200
F2340       F  0.61921253  0.87793931  0.69351609    -0.19600
F2341       F  0.65012904  0.88780383  0.67986486    -0.19300
F2342       F  0.62759212  0.98927980  0.72191405    -0.19300
F2343       F  0.65604421  0.97714090  0.73945816    -0.19600
F2344       F  0.62364219  0.97174674  0.75214011    -0.22300
C2345       C  0.55957178  0.86539946  0.75633934    -0.05100
C2346       C  0.57893993  0.86968424  0.76595939     0.00800
C2347       C  0.58089152  0.86705033  0.78793231    -0.07800
C2348       C  0.56377405  0.85862239  0.79924317    -0.05200
C2349       C  0.54489771  0.85304766  0.78932647     0.00800
C2350       C  0.54235953  0.85734174  0.76770540    -0.07700
C2351       C  0.52140185  0.85396633  0.75681495     0.62700
H2352       H  0.55815148  0.86792140  0.73967144     0.13400
H2353       H  0.56525965  0.85563868  0.81587496     0.13400
C2354       C  0.60080383  0.87328673  0.79949171     0.62900
F2355       F  0.52134938  0.86240735  0.73680690    -0.22200
F2356       F  0.50552905  0.86378406  0.76805739    -0.19600
F2357       F  0.51716662  0.83255254  0.75531379    -0.19300
F2358       F  0.59798460  0.87285441  0.82097073    -0.19300
F2359       F  0.60664407  0.89363080  0.79396214    -0.19600
F2360       F  0.61690814  0.85942369  0.79459275    -0.22300
C2361       C  0.57839310  0.92421137  0.75791617    -0.05100
C2362       C  0.58017498  0.91070657  0.74064322     0.00800
C2363       C  0.56606109  0.91278147  0.72362356    -0.07800
C2364       C  0.55133219  0.92931950  0.72400567    -0.05200
C2365       C  0.54990597  0.94312819  0.74107154     0.00800
C2366       C  0.56328836  0.94042695  0.75854380    -0.07700
C2367       C  0.56138208  0.95436499  0.77779908     0.62700
H2368       H  0.58920457  0.92201742  0.77079777     0.13400
H2369       H  0.54052092  0.93127083  0.71100951     0.13400
C2370       C  0.56524051  0.89776553  0.70515060     0.62900
F2371       F  0.57513160  0.94812105  0.79344853    -0.22200
F2372       F  0.54115185  0.95324817  0.78568500    -0.19600
F2373       F  0.56586917  0.97514020  0.77266066    -0.19300
F2374       F  0.57934418  0.88118899  0.70672026    -0.19300
F2375       F  0.56944482  0.90886020  0.68695653    -0.19600
F2376       F  0.54525434  0.88922622  0.70376600    -0.22300
C2377       C  0.37090817  0.91801265  0.71448167    -0.05100
C2378       C  0.36469543  0.91368974  0.73503526     0.00800
C2379       C  0.34953042  0.92687379  0.74474863    -0.07800
C2380       C  0.34073669  0.94375271  0.73317983    -0.05200
C2381       C  0.34660318  0.94797881  0.71231130     0.00800
C2382       C  0.36232668  0.93492184  0.70284650    -0.07700
C2383       C  0.37000138  0.93821513  0.68052261     0.62700
H2384       H  0.38239715  0.90762816  0.70741434     0.13400
H2385       H  0.32896076  0.95374265  0.74044741     0.13400
C2386       C  0.34272346  0.92330200  0.76726604     0.62900
F2387       F  0.38434921  0.92285443  0.67445861    -0.22200
F2388       F  0.37990935  0.95763984  0.67886883    -0.19600
F2389       F  0.35320722  0.93730673  0.66679431    -0.19300
F2390       F  0.36017682  0.92202318  0.78011200    -0.19300
F2391       F  0.33139477  0.90471182  0.76877316    -0.19600
F2392       F  0.33011340  0.93963829  0.77453271    -0.22300
C2393       C  0.42832898  0.87800066  0.78305710    -0.05100
C2394       C  0.41787422  0.86540373  0.76833183     0.00800
C2395       C  0.42583905  0.84483172  0.76401731    -0.07800
C2396       C  0.44336633  0.83741126  0.77537608    -0.05200
C2397       C  0.45379890  0.84994834  0.79034563     0.00800
C2398       C  0.44647675  0.87104740  0.79370942    -0.07700
C2399       C  0.45733112  0.88642557  0.80846565     0.62700
H2400       H  0.42156674  0.89314826  0.78702267     0.13400
H2401       H  0.44870948  0.82131501  0.77278531     0.13400
C2402       C  0.41561598  0.82985437  0.74845807     0.62900
F2403       F  0.44911329  0.90671860  0.80688582    -0.22200
F2404       F  0.47852328  0.88763169  0.80365212    -0.19600
F2405       F  0.45476867  0.87978633  0.82894096    -0.19300
F2406       F  0.43028206  0.81584905  0.74030524    -0.19300
F2407       F  0.40685850  0.84069198  0.73180517    -0.19600
F2408       F  0.40013984  0.81828943  0.75845398    -0.22300
C2409       C  0.41187804  0.92496850  0.76285806    -0.05100
C2410       C  0.41080986  0.90930323  0.74741141     0.00800
C2411       C  0.42489399  0.90995592  0.73023149    -0.07800
C2412       C  0.43948397  0.92660447  0.72909780    -0.05200
C2413       C  0.44069847  0.94212598  0.74473613     0.00800
C2414       C  0.42721676  0.94090666  0.76233612    -0.07700
C2415       C  0.42956791  0.95571075  0.78087947     0.62700
H2416       H  0.40097850  0.92401414  0.77582575     0.13400
H2417       H  0.45023081  0.92741561  0.71593549     0.13400
C2418       C  0.42528300  0.89378852  0.71272492     0.62900
F2419       F  0.41687051  0.94972923  0.79746550    -0.22200
F2420       F  0.42402728  0.97604512  0.77517379    -0.19600
F2421       F  0.45019040  0.95554268  0.78778612    -0.19300
F2422       F  0.40964122  0.87878166  0.71444911    -0.19300
F2423       F  0.44451728  0.88348772  0.71275204    -0.19600
F2424       F  0.42278401  0.90405721  0.69374484    -0.22300
C2425       C  0.63134442  0.71046100  0.08041676    -0.05100
C2426       C  0.62579546  0.73164394  0.07649108     0.00800
C2427       C  0.62961669  0.74037423  0.05634346    -0.07800
C2428       C  0.63832301  0.72720339  0.04072200    -0.05200
C2429       C  0.64399854  0.70606772  0.04480378     0.00800
C2430       C  0.64043814  0.69752009  0.06496285    -0.07700
C2431       C  0.64740618  0.67521368  0.07047885     0.62700
H2432       H  0.62880290  0.70419487  0.09599864     0.13400
H2433       H  0.64136086  0.73370824  0.02530887     0.13400
C2434       C  0.62590661  0.76345326  0.05059671     0.62900
F2435       F  0.64298774  0.67013322  0.09109400    -0.22200
F2436       F  0.66889452  0.67353648  0.06756855    -0.19600
F2437       F  0.63721165  0.66072938  0.05786294    -0.19300
F2438       F  0.62075978  0.77602457  0.06751138    -0.19300
F2439       F  0.60982969  0.76468740  0.03606420    -0.19600
F2440       F  0.64401925  0.77170965  0.04179120    -0.22300
C2441       C  0.56081738  0.75975851  0.12900299    -0.05100
C2442       C  0.57904829  0.77181439  0.12571131     0.00800
C2443       C  0.57919700  0.79352862  0.13134257    -0.07800
C2444       C  0.56118087  0.80223467  0.14084784    -0.05200
C2445       C  0.54325647  0.78997644  0.14503350     0.00800
C2446       C  0.54282619  0.76847015  0.13866010    -0.07700
C2447       C  0.52336473  0.75493294  0.14158226     0.62700
H2448       H  0.56096089  0.74326826  0.12431357     0.13400
H2449       H  0.56118033  0.81868208  0.14569145     0.13400
C2450       C  0.59815530  0.80757399  0.12720142     0.62900
F2451       F  0.52503694  0.73579831  0.13112375    -0.22200
F2452       F  0.50594470  0.76551519  0.13381767    -0.19600
F2453       F  0.52043844  0.75067854  0.16260776    -0.19300
F2454       F  0.60429965  0.80587088  0.10651703    -0.19300
F2455       F  0.61467165  0.80159475  0.13996285    -0.19600
F2456       F  0.59376473  0.82870227  0.13113415    -0.22300
C2457       C  0.57333015  0.77187538  0.07525959    -0.05100
C2458       C  0.58133197  0.75227124  0.08195602     0.00800
C2459       C  0.57238003  0.73340417  0.07405692    -0.07800
C2460       C  0.55791809  0.73488980  0.05755940    -0.05200
C2461       C  0.54966180  0.75447300  0.05105631     0.00800
C2462       C  0.55692344  0.77335408  0.06064499    -0.07700
C2463       C  0.54788732  0.79530782  0.05669948     0.62700
H2464       H  0.57968677  0.78624135  0.08194128     0.13400
H2465       H  0.55182718  0.72045522  0.05065872     0.13400
C2466       C  0.57593283  0.71163839  0.08349801     0.62900
F2467       F  0.54103686  0.80375064  0.07548844    -0.22200
F2468       F  0.53107980  0.79543578  0.04301238    -0.19600
F2469       F  0.56346222  0.80824725  0.04865156    -0.19300
F2470       F  0.55664193  0.70266288  0.08818282    -0.19300
F2471       F  0.58741352  0.71219078  0.10183053    -0.19600
F2472       F  0.58616385  0.69885524  0.06917268    -0.22300
C2473       C  0.34840512  0.75165777  0.06171505    -0.05100
C2474       C  0.36417721  0.74286042  0.07433820     0.00800
C2475       C  0.37024149  0.72148126  0.07102611    -0.07800
C2476       C  0.36073234  0.70997193  0.05458644    -0.05200
C2477       C  0.34493602  0.71880101  0.04173812     0.00800
C2478       C  0.33907014  0.74040199  0.04511014    -0.07700
C2479       C  0.32339621  0.75205921  0.03121409     0.62700
H2480       H  0.34333673  0.76768611  0.06507293     0.13400
H2481       H  0.36545376  0.69368636  0.05196282     0.13400
C2482       C  0.38645414  0.71036770  0.08465405     0.62900
F2483       F  0.32282545  0.77357739  0.03542557    -0.22200
F2484       F  0.30336717  0.74418703  0.03444430    -0.19600
F2485       F  0.32900545  0.74973287  0.01041413    -0.19300
F2486       F  0.38569208  0.71743860  0.10511372    -0.19300
F2487       F  0.40629355  0.71395962  0.07660309    -0.19600
F2488       F  0.38298443  0.68871421  0.08506351    -0.22300
C2489       C  0.43784461  0.80978959  0.13107610    -0.05100
C2490       C  0.44841920  0.79617232  0.14517333     0.00800
C2491       C  0.43987124  0.77550506  0.14859920    -0.07800
C2492       C  0.42149964  0.76950108  0.13774420    -0.05200
C2493       C  0.41149510  0.78289605  0.12335901     0.00800
C2494       C  0.41945266  0.80356444  0.12026460    -0.07700
C2495       C  0.40825616  0.81909702  0.10596829     0.62700
H2496       H  0.44396008  0.82559804  0.12868415     0.13400
H2497       H  0.41471914  0.75396937  0.14023191     0.13400
C2498       C  0.44971855  0.75953147  0.16354178     0.62900
F2499       F  0.41731129  0.83901840  0.10654412    -0.22200
F2500       F  0.38743113  0.82107879  0.11197218    -0.19600
F2501       F  0.40915436  0.81186595  0.08564095    -0.19300
F2502       F  0.44802732  0.76679735  0.18388321    -0.19300
F2503       F  0.47063641  0.75637767  0.15847181    -0.19600
F2504       F  0.43988632  0.73999547  0.16264815    -0.22300
C2505       C  0.42759306  0.75460857  0.08629033    -0.05100
C2506       C  0.40860287  0.76330036  0.07917302     0.00800
C2507       C  0.40788002  0.77219454  0.05877396    -0.07800
C2508       C  0.42512604  0.76883499  0.04546930    -0.05200
C2509       C  0.44303566  0.75742254  0.05198459     0.00800
C2510       C  0.44573243  0.75552202  0.07399390    -0.07700
C2511       C  0.46532175  0.76280162  0.08564781     0.62700
H2512       H  0.42899461  0.74964013  0.10239996     0.13400
H2513       H  0.42453893  0.77538168  0.02981692     0.13400
C2514       C  0.38991465  0.78546147  0.05018431     0.62900
F2515       F  0.45987823  0.77829841  0.09998592    -0.22200
F2516       F  0.48000955  0.77188511  0.07248673    -0.19600
F2517       F  0.47418227  0.74612232  0.09661295    -0.19300
F2518       F  0.37541941  0.79111929  0.06526023    -0.19300
F2519       F  0.37987959  0.77430481  0.03448695    -0.19600
F2520       F  0.39783600  0.80399925  0.04171477    -0.22300
C2521       C  0.64448221  0.74033392  0.93404027    -0.05100
C2522       C  0.63132019  0.72974933  0.91990822     0.00800
C2523       C  0.62779666  0.70780119  0.92230420    -0.07800
C2524       C  0.63701884  0.69727535  0.93946584    -0.05200
C2525       C  0.64981911  0.70791839  0.95406328     0.00800
C2526       C  0.65361014  0.72997300  0.95130449    -0.07700
C2527       C  0.66676401  0.74286280  0.96652059     0.62700
H2528       H  0.64719845  0.75709251  0.93156047     0.13400
H2529       H  0.63441449  0.68044529  0.94146957     0.13400
C2530       C  0.61496236  0.69546150  0.90646931     0.62900
F2531       F  0.66572511  0.76437173  0.96227491    -0.22200
F2532       F  0.68763662  0.73678222  0.96515164    -0.19600
F2533       F  0.65955867  0.73983860  0.98672705    -0.19300
F2534       F  0.62267543  0.69905690  0.88653856    -0.19300
F2535       F  0.59418017  0.70178085  0.90734854    -0.19600
F2536       F  0.61573552  0.67386021  0.91023838    -0.22300
C2537       C  0.57181746  0.78700452  0.88511527    -0.05100
C2538       C  0.58415207  0.77317673  0.87302447     0.00800
C2539       C  0.57917767  0.77029866  0.85151432    -0.07800
C2540       C  0.56167048  0.78096044  0.84319366    -0.05200
C2541       C  0.54890492  0.79445228  0.85524285     0.00800
C2542       C  0.55420273  0.79776461  0.87667365    -0.07700
C2543       C  0.54141525  0.81224247  0.89079231     0.62700
H2544       H  0.57619137  0.78931560  0.90132294     0.13400
H2545       H  0.55810961  0.77909547  0.82673713     0.13400
C2546       C  0.59225170  0.75652345  0.83678977     0.62900
F2547       F  0.54832677  0.81150757  0.91133096    -0.22200
F2548       F  0.52051762  0.80617172  0.89058916    -0.19600
F2549       F  0.54315420  0.83297765  0.88397658    -0.19300
F2550       F  0.59844571  0.73784302  0.84628223    -0.19300
F2551       F  0.60988076  0.76756602  0.83046818    -0.19600
F2552       F  0.58100881  0.75109843  0.81903497    -0.22300
C2553       C  0.58909456  0.74524702  0.93654238    -0.05100
C2554       C  0.58483000  0.74587479  0.91490717     0.00800
C2555       C  0.56350995  0.74330663  0.90876178    -0.07800
C2556       C  0.54776151  0.74630223  0.92385836    -0.05200
C2557       C  0.55209040  0.74363478  0.94533186     0.00800
C2558       C  0.57343444  0.74033847  0.95117997    -0.07700
C2559       C  0.58078478  0.73028407  0.97158057     0.62700
H2560       H  0.60480115  0.74731322  0.94235520     0.13400
H2561       H  0.53177528  0.74868249  0.91852876     0.13400
C2562       C  0.55649342  0.73424792  0.88800617     0.62900
F2563       F  0.59423439  0.71362567  0.96703814    -0.22200
F2564       F  0.56447430  0.72205510  0.98332405    -0.19600
F2565       F  0.59172431  0.74493823  0.98338226    -0.19300
F2566       F  0.57324331  0.72792153  0.87583585    -0.19300
F2567       F  0.54435740  0.74883088  0.87726006    -0.19600
F2568       F  0.54431655  0.71646937  0.89167633    -0.22300
C2569       C  0.35655701  0.71739685  0.91468773    -0.05100
C2570       C  0.36658136  0.73676511  0.91868532     0.00800
C2571       C  0.36622852  0.74516154  0.93932210    -0.07800
C2572       C  0.35688353  0.73311824  0.95541162    -0.05200
C2573       C  0.34699561  0.71373399  0.95132912     0.00800
C2574       C  0.34673362  0.70570484  0.93067315    -0.07700
C2575       C  0.33569765  0.68507483  0.92552869     0.62700
H2576       H  0.35653589  0.71144470  0.89879869     0.13400
H2577       H  0.35673861  0.73922066  0.97127005     0.13400
C2578       C  0.37437428  0.76696196  0.94518806     0.62900
F2579       F  0.33663643  0.68039840  0.90439036    -0.22200
F2580       F  0.31474589  0.68655669  0.93115264    -0.19600
F2581       F  0.34505502  0.66859244  0.93637783    -0.19300
F2582       F  0.35933047  0.77751304  0.95690217    -0.19300
F2583       F  0.37885990  0.77950516  0.92805610    -0.19600
F2584       F  0.39235009  0.76476504  0.95715336    -0.22300
C2585       C  0.43516238  0.76122267  0.86715267    -0.05100
C2586       C  0.41774435  0.77409487  0.87178623     0.00800
C2587       C  0.41931389  0.79636732  0.86902824    -0.07800
C2588       C  0.43805756  0.80482650  0.86084399    -0.05200
C2589       C  0.45507195  0.79188423  0.85506650     0.00800
C2590       C  0.45386181  0.76969946  0.85869967    -0.07700
C2591       C  0.47222798  0.75502407  0.85401105     0.62700
H2592       H  0.43377174  0.74431112  0.86972297     0.13400
H2593       H  0.43921135  0.82171331  0.85800212     0.13400
C2594       C  0.40137215  0.81131893  0.87458679     0.62900
F2595       F  0.46898720  0.73489335  0.86203059    -0.22200
F2596       F  0.49042594  0.76296537  0.86288309    -0.19600
F2597       F  0.47490069  0.75320917  0.83262468    -0.19300
F2598       F  0.39394453  0.80689552  0.89444730    -0.19300
F2599       F  0.38522474  0.80915282  0.86030121    -0.19600
F2600       F  0.40769882  0.83230194  0.87429542    -0.22300
C2601       C  0.42495775  0.76443389  0.92086650    -0.05100
C2602       C  0.41378452  0.74758271  0.91203841     0.00800
C2603       C  0.41930325  0.72644749  0.91743772    -0.07800
C2604       C  0.43403836  0.72308286  0.93350012    -0.05200
C2605       C  0.44458486  0.74004324  0.94284719     0.00800
C2606       C  0.44065422  0.76103358  0.93591335    -0.07700
C2607       C  0.45294302  0.77977379  0.94442182     0.62700
H2608       H  0.42089973  0.78038780  0.91611151     0.13400
H2609       H  0.43769777  0.70706117  0.93849464     0.13400
C2610       C  0.41109457  0.70699930  0.90623937     0.62900
F2611       F  0.44714247  0.79860592  0.93485444    -0.22200
F2612       F  0.47419889  0.77671808  0.94088963    -0.19600
F2613       F  0.44945287  0.78186459  0.96566435    -0.19300
F2614       F  0.42796360  0.69489433  0.89949628    -0.19300
F2615       F  0.39908241  0.71184010  0.88887111    -0.19600
F2616       F  0.39919845  0.69502966  0.91996325    -0.22300
C2617       C  0.64206568  0.05976208  0.29548134    -0.05100
C2618       C  0.64741161  0.04056309  0.28574515     0.00800
C2619       C  0.64163884  0.03720921  0.26460015    -0.07800
C2620       C  0.63175629  0.05372112  0.25352628    -0.05200
C2621       C  0.62702677  0.07313072  0.26301605     0.00800
C2622       C  0.63211956  0.07629666  0.28436280    -0.07700
C2623       C  0.62747286  0.09718480  0.29519756     0.62700
H2624       H  0.64642672  0.06196607  0.31171371     0.13400
H2625       H  0.62838176  0.05182771  0.23709427     0.13400
C2626       C  0.64566355  0.01620361  0.25384300     0.62900
F2627       F  0.63249000  0.09648969  0.31626162    -0.22200
F2628       F  0.60634117  0.10197119  0.29348978    -0.19600
F2629       F  0.63906949  0.11321520  0.28605617    -0.19300
F2630       F  0.63598233  0.01514850  0.23447865    -0.19300
F2631       F  0.63785515  0.99986811  0.26602772    -0.19600
F2632       F  0.66703618  0.01350354  0.25089103    -0.22300
C2633       C  0.55025370  0.14625894  0.21896538    -0.05100
C2634       C  0.54258388  0.13684397  0.20048718     0.00800
C2635       C  0.55128615  0.11697385  0.19411268    -0.07800
C2636       C  0.56830778  0.10849655  0.20555304    -0.05200
C2637       C  0.57658929  0.11871211  0.22311401     0.00800
C2638       C  0.56708397  0.13758000  0.23038837    -0.07700
C2639       C  0.57463287  0.14857770  0.25014753     0.62700
H2640       H  0.54332039  0.16097064  0.22427779     0.13400
H2641       H  0.57589752  0.09413597  0.20032987     0.13400
C2642       C  0.54316329  0.10457883  0.17538616     0.62900
F2643       F  0.56200396  0.16568603  0.25537975    -0.22200
F2644       F  0.59487420  0.15598128  0.24739754    -0.19600
F2645       F  0.57432431  0.13450248  0.26671628    -0.19300
F2646       F  0.54661264  0.11587351  0.15716633    -0.19300
F2647       F  0.52189260  0.10064859  0.17776477    -0.19600
F2648       F  0.55317303  0.08517558  0.17326835    -0.22300
C2649       C  0.56075857  0.04544646  0.24337349    -0.05100
C2650       C  0.54990598  0.04860980  0.26231425     0.00800
C2651       C  0.55415914  0.06708682  0.27425081    -0.07800
C2652       C  0.56937684  0.08139491  0.26681589    -0.05200
C2653       C  0.58100689  0.07745068  0.24863573     0.00800
C2654       C  0.57656037  0.05926528  0.23650867    -0.07700
C2655       C  0.58806953  0.05326416  0.21656302     0.62700
H2656       H  0.55741870  0.03143234  0.23415143     0.13400
H2657       H  0.57282456  0.09560711  0.27549703     0.13400
C2658       C  0.54367625  0.07133550  0.29520396     0.62900
F2659       F  0.57376803  0.05189951  0.20032701    -0.22200
F2660       F  0.59741647  0.03361674  0.21919031    -0.19600
F2661       F  0.60346139  0.06759142  0.21091084    -0.19300
F2662       F  0.54635032  0.05406276  0.30829650    -0.19300
F2663       F  0.52246296  0.07519398  0.29232303    -0.19600
F2664       F  0.55217039  0.08883740  0.30511839    -0.22300
C2665       C  0.37371397  0.07548208  0.28571694    -0.05100
C2666       C  0.37286866  0.07462981  0.26380713     0.00800
C2667       C  0.36228165  0.05761109  0.25404300    -0.07800
C2668       C  0.35302971  0.04181644  0.26658248    -0.05200
C2669       C  0.35385637  0.04251983  0.28853791     0.00800
C2670       C  0.36454743  0.05962373  0.29836602    -0.07700
C2671       C  0.36551650  0.06179070  0.32202235     0.62700
H2672       H  0.38123803  0.08902988  0.29286547     0.13400
H2673       H  0.34486633  0.02874177  0.25925253     0.13400
C2674       C  0.36049757  0.05632633  0.23043233     0.62900
F2675       F  0.37464208  0.08071283  0.32808756    -0.22200
F2676       F  0.37741794  0.04548099  0.33038899    -0.19600
F2677       F  0.34540362  0.06118225  0.33028199    -0.19300
F2678       F  0.38033975  0.05447546  0.22191612    -0.19300
F2679       F  0.35086560  0.07438942  0.22270648    -0.19600
F2680       F  0.34883074  0.03899780  0.22407273    -0.22300
C2681       C  0.43298274  0.14026176  0.18989106    -0.05100
C2682       C  0.45232765  0.14268360  0.20006886     0.00800
C2683       C  0.45466441  0.13534370  0.22089573    -0.07800
C2684       C  0.43735986  0.12571991  0.23085517    -0.05200
C2685       C  0.41789815  0.12337638  0.22074172     0.00800
C2686       C  0.41563259  0.13069519  0.19975776    -0.07700
C2687       C  0.39516619  0.12972124  0.18741021     0.62700
H2688       H  0.43137237  0.14627774  0.17406522     0.13400
H2689       H  0.43873656  0.12052007  0.24694110     0.13400
C2690       C  0.47536183  0.13757341  0.23250762     0.62900
F2691       F  0.39930148  0.12610278  0.16644245    -0.22200
F2692       F  0.38479031  0.14891540  0.18925403    -0.19600
F2693       F  0.38197305  0.11370752  0.19405234    -0.19300
F2694       F  0.47976090  0.15878459  0.23559038    -0.19300
F2695       F  0.49139636  0.12839237  0.22099659    -0.19600
F2696       F  0.47479143  0.12778984  0.25190544    -0.22300
C2697       C  0.44564252  0.05676118  0.23866742    -0.05100
C2698       C  0.45050342  0.05394746  0.25990212     0.00800
C2699       C  0.44010013  0.06646985  0.27509771    -0.07800
C2700       C  0.42440240  0.08065162  0.26843732    -0.05200
C2701       C  0.41802220  0.08191383  0.24745671     0.00800
C2702       C  0.42921371  0.07015632  0.23210420    -0.07700
C2703       C  0.42425681  0.07012477  0.20891345     0.62700
H2704       H  0.45375403  0.04707988  0.22718155     0.13400
H2705       H  0.41636821  0.09054574  0.27970383     0.13400
C2706       C  0.44473899  0.06416530  0.29829531     0.62900
F2707       F  0.44109767  0.07858252  0.19806235    -0.22200
F2708       F  0.40647280  0.08152455  0.20392501    -0.19600
F2709       F  0.42116727  0.04949027  0.20229225    -0.19300
F2710       F  0.46544336  0.06954188  0.30217556    -0.19300
F2711       F  0.44126396  0.04347613  0.30455511    -0.19600
F2712       F  0.43205352  0.07719805  0.31034780    -0.22300
C2713       C  0.63311263  0.93849330  0.30102532    -0.05100
C2714       C  0.64909398  0.94883998  0.28967977     0.00800
C2715       C  0.65445778  0.94074516  0.26946769    -0.07800
C2716       C  0.64332101  0.92315992  0.26159437    -0.05200
C2717       C  0.62805657  0.91248918  0.27335542     0.00800
C2718       C  0.62333456  0.91989426  0.29376324    -0.07700
C2719       C  0.60907161  0.90843145  0.30899186     0.62700
H2720       H  0.62899733  0.94422826  0.31647584     0.13400
H2721       H  0.64694565  0.91700067  0.24619471     0.13400
C2722       C  0.67201328  0.94993919  0.25609724     0.62900
F2723       F  0.61840460  0.90768697  0.32855473    -0.22200
F2724       F  0.60522021  0.88780788  0.30312505    -0.19600
F2725       F  0.59025691  0.91933862  0.31057208    -0.19300
F2726       F  0.69114692  0.94715881  0.26604375    -0.19300
F2727       F  0.66842345  0.97120891  0.25259741    -0.19600
F2728       F  0.67341031  0.94021346  0.23673292    -0.22300
C2729       C  0.56948772  0.84757296  0.24203383    -0.05100
C2730       C  0.58127879  0.86371639  0.23271296     0.00800
C2731       C  0.57635498  0.87006863  0.21200502    -0.07800
C2732       C  0.55866966  0.86112196  0.20208791    -0.05200
C2733       C  0.54622819  0.84535281  0.21163613     0.00800
C2734       C  0.55198800  0.83829870  0.23211738    -0.07700
C2735       C  0.53999231  0.82120206  0.24389033     0.62700
H2736       H  0.57436762  0.84201400  0.25729807     0.13400
H2737       H  0.55496084  0.86619257  0.18629799     0.13400
C2738       C  0.58956474  0.88526798  0.19910612     0.62900
F2739       F  0.54746882  0.81837412  0.26406017    -0.22200
F2740       F  0.54199115  0.80202480  0.23361647    -0.19600
F2741       F  0.51901537  0.82679099  0.24538894    -0.19300
F2742       F  0.60710230  0.89267107  0.20950020    -0.19300
F2743       F  0.57733122  0.90242734  0.19328277    -0.19600
F2744       F  0.59640698  0.87501766  0.18121792    -0.22300
C2745       C  0.58509028  0.92381913  0.24190900    -0.05100
C2746       C  0.58306775  0.90657575  0.25560199     0.00800
C2747       C  0.56479273  0.90476254  0.26819925    -0.07800
C2748       C  0.54999562  0.92123891  0.26772112    -0.05200
C2749       C  0.55187754  0.93843293  0.25390454     0.00800
C2750       C  0.56920675  0.93917947  0.23989969    -0.07700
C2751       C  0.57168797  0.95549009  0.22255723     0.62700
H2752       H  0.59896103  0.92483371  0.23211332     0.13400
H2753       H  0.53655837  0.92056748  0.27817317     0.13400
C2754       C  0.55975437  0.88606179  0.28226748     0.62900
F2755       F  0.57581800  0.94523049  0.20388996    -0.22200
F2756       F  0.58844890  0.96862192  0.22712476    -0.19600
F2757       F  0.55390080  0.96776711  0.21957761    -0.19300
F2758       F  0.57541695  0.87095581  0.28277574    -0.19300
F2759       F  0.54150661  0.87651697  0.27524290    -0.19600
F2760       F  0.55646603  0.89309293  0.30249665    -0.22300
C2761       C  0.34549820  0.94877575  0.26724253    -0.05100
C2762       C  0.35043434  0.95060656  0.28865240     0.00800
C2763       C  0.36401465  0.93522336  0.29791158    -0.07800
C2764       C  0.37126372  0.91825572  0.28550492    -0.05200
C2765       C  0.36661929  0.91687080  0.26413198     0.00800
C2766       C  0.35347153  0.93225562  0.25479100    -0.07700
C2767       C  0.34790991  0.93121699  0.23174247     0.62700
H2768       H  0.33537910  0.96059712  0.26015888     0.13400
H2769       H  0.38065046  0.90576851  0.29244588     0.13400
C2770       C  0.37080521  0.93629460  0.32068890     0.62900
F2771       F  0.33375278  0.94689789  0.22602711    -0.22200
F2772       F  0.33897907  0.91182301  0.22710492    -0.19600
F2773       F  0.36592360  0.93383668  0.21999331    -0.19300
F2774       F  0.35332730  0.93645911  0.33357477    -0.19300
F2775       F  0.38256264  0.95440878  0.32395450    -0.19600
F2776       F  0.38316980  0.91912587  0.32637266    -0.22300
C2777       C  0.43346917  0.86782541  0.23691224    -0.05100
C2778       C  0.41491736  0.86871241  0.22493776     0.00800
C2779       C  0.41492738  0.86027001  0.20431495    -0.07800
C2780       C  0.43364401  0.85155229  0.19648098    -0.05200
C2781       C  0.45202054  0.85051723  0.20847797     0.00800
C2782       C  0.45206694  0.85857542  0.22907981    -0.07700
C2783       C  0.47156720  0.85722813  0.24265143     0.62700
H2784       H  0.43308908  0.87388485  0.25275038     0.13400
H2785       H  0.43382847  0.84508031  0.18074817     0.13400
C2786       C  0.39613306  0.85980784  0.18958913     0.62900
F2787       F  0.46864773  0.86702443  0.26181202    -0.22200
F2788       F  0.48826955  0.86694884  0.23264734    -0.19600
F2789       F  0.47647232  0.83619255  0.24628712    -0.19300
F2790       F  0.37846292  0.86987333  0.19724282    -0.19300
F2791       F  0.39097804  0.83893653  0.18547915    -0.19600
F2792       F  0.40152416  0.86957466  0.17094656    -0.22300
C2793       C  0.41867212  0.91701550  0.26433764    -0.05100
C2794       C  0.41039188  0.91304748  0.24440221     0.00800
C2795       C  0.41867445  0.92402391  0.22683394    -0.07800
C2796       C  0.43479580  0.93883507  0.23008116    -0.05200
C2797       C  0.44224307  0.94339430  0.25018674     0.00800
C2798       C  0.43403431  0.93251549  0.26768126    -0.07700
C2799       C  0.44129687  0.93751398  0.28976166     0.62700
H2800       H  0.41299503  0.90768029  0.27731329     0.13400
H2801       H  0.44148414  0.94719372  0.21682423     0.13400
C2802       C  0.41137112  0.92095505  0.20449242     0.62900
F2803       F  0.43163500  0.92467874  0.30447519    -0.22200
F2804       F  0.43644288  0.95834441  0.29447880    -0.19600
F2805       F  0.46279769  0.93457766  0.29139323    -0.19300
F2806       F  0.40625077  0.94042643  0.19587476    -0.19300
F2807       F  0.39394745  0.90815242  0.20289328    -0.19600
F2808       F  0.42753147  0.91203942  0.19295122    -0.22300
C2809       C  0.25796125  0.06817757  0.64298657    -0.05100
C2810       C  0.27132975  0.07976358  0.62982804     0.00800
C2811       C  0.29255811  0.07346409  0.62775687    -0.07800
C2812       C  0.29928439  0.05480464  0.63774502    -0.05200
C2813       C  0.28606423  0.04297196  0.65103909     0.00800
C2814       C  0.26496624  0.05012534  0.65408066    -0.07700
C2815       C  0.24978195  0.03928481  0.66898457     0.62700
H2816       H  0.24196640  0.07382605  0.64486899     0.13400
H2817       H  0.31538103  0.04965839  0.63554714     0.13400
C2818       C  0.30832615  0.08660408  0.61558937     0.62900
F2819       F  0.25701892  0.04107584  0.68930437    -0.22200
F2820       F  0.24784571  0.01818278  0.66377360    -0.19600
F2821       F  0.22987054  0.04822662  0.66824837    -0.19300
F2822       F  0.32879377  0.07980191  0.61890120    -0.19300
F2823       F  0.30712192  0.10762756  0.62160187    -0.19600
F2824       F  0.30412563  0.08493476  0.59453730    -0.22300
C2825       C  0.22039621  0.11865650  0.57162865    -0.05100
C2826       C  0.23692694  0.13048577  0.58025029     0.00800
C2827       C  0.24121373  0.15092020  0.57205839    -0.07800
C2828       C  0.22868234  0.15866871  0.55563316    -0.05200
C2829       C  0.21223052  0.14683212  0.54662642     0.00800
C2830       C  0.20793348  0.12631066  0.55495108    -0.07700
C2831       C  0.19021933  0.11245585  0.54681401     0.62700
H2832       H  0.21681744  0.10347958  0.57863564     0.13400
H2833       H  0.23197430  0.17444850  0.54978750     0.13400
C2834       C  0.25857035  0.16551778  0.57980358     0.62900
F2835       F  0.18962218  0.09294061  0.55674821    -0.22200
F2836       F  0.19291705  0.10878441  0.52565096    -0.19600
F2837       F  0.17108608  0.12234822  0.55028384    -0.19300
F2838       F  0.27246616  0.15595323  0.59346848    -0.19300
F2839       F  0.24951844  0.18275117  0.58971791    -0.19600
F2840       F  0.27017047  0.17273375  0.56291724    -0.22300
C2841       C  0.24332588  0.06892889  0.58745396    -0.05100
C2842       C  0.25681739  0.08613995  0.58425995     0.00800
C2843       C  0.26766067  0.08805802  0.56495974    -0.07800
C2844       C  0.26508615  0.07209896  0.54986707    -0.05200
C2845       C  0.25143159  0.05486458  0.55298712     0.00800
C2846       C  0.23960779  0.05379308  0.57184189    -0.07700
C2847       C  0.22240769  0.03772510  0.57623532     0.62700
H2848       H  0.23453520  0.06812011  0.60196880     0.13400
H2849       H  0.27397649  0.07304477  0.53541016     0.13400
C2850       C  0.28215233  0.10632552  0.55945380     0.62900
F2851       F  0.20444817  0.04825490  0.58277818    -0.22200
F2852       F  0.22892450  0.02424415  0.59205670    -0.19600
F2853       F  0.21699287  0.02583195  0.55894463    -0.19300
F2854       F  0.30114418  0.09846773  0.55218425    -0.19300
F2855       F  0.28642178  0.11931696  0.57626568    -0.19600
F2856       F  0.27298588  0.11836777  0.54381298    -0.22300
C2857       C  0.28700506  0.07201226  0.37850108    -0.05100
C2858       C  0.27016122  0.08137899  0.36775251     0.00800
C2859       C  0.26410313  0.07307252  0.34806436    -0.07800
C2860       C  0.27494784  0.05536213  0.34018705    -0.05200
C2861       C  0.29179654  0.04570775  0.35096188     0.00800
C2862       C  0.29786955  0.05418833  0.37072214    -0.07700
C2863       C  0.31565155  0.04488412  0.38377640     0.62700
H2864       H  0.29214164  0.07929552  0.39286198     0.13400
H2865       H  0.27054388  0.04931313  0.32498254     0.13400
C2866       C  0.24687337  0.08307265  0.33474188     0.62900
F2867       F  0.31767860  0.05496867  0.40290253    -0.22200
F2868       F  0.33455562  0.04705839  0.37327269    -0.19600
F2869       F  0.31177616  0.02369678  0.38776532    -0.19300
F2870       F  0.25432228  0.10140325  0.32554872    -0.19300
F2871       F  0.22943060  0.08780433  0.34672928    -0.19600
F2872       F  0.24038767  0.06964996  0.31889605    -0.22300
C2873       C  0.23248670  0.14981058  0.45037340    -0.05100
C2874       C  0.21127239  0.14444100  0.45386732     0.00800
C2875       C  0.20100107  0.13075744  0.43939984    -0.07800
C2876       C  0.21246255  0.12317371  0.42209367    -0.05200
C2877       C  0.23340714  0.12893927  0.41858300     0.00800
C2878       C  0.24362949  0.14263102  0.43275001    -0.07700
C2879       C  0.26597958  0.15019759  0.42894258     0.62700
H2880       H  0.24020773  0.16032414  0.46129764     0.13400
H2881       H  0.20488017  0.11321959  0.41065393     0.13400
C2882       C  0.17793676  0.12469108  0.44146446     0.62900
F2883       F  0.26650804  0.16291563  0.41133092    -0.22200
F2884       F  0.27923556  0.13308417  0.42602219    -0.19600
F2885       F  0.27360849  0.16188809  0.44559141    -0.19300
F2886       F  0.16556754  0.14276052  0.44211811    -0.19300
F2887       F  0.17499242  0.11290326  0.45948555    -0.19600
F2888       F  0.17109041  0.11256149  0.42477067    -0.22300
C2889       C  0.26727014  0.08283218  0.42619664    -0.05100
C2890       C  0.25034646  0.08423694  0.41218174     0.00800
C2891       C  0.23327135  0.06996514  0.41419018    -0.07800
C2892       C  0.23364848  0.05499941  0.43049183    -0.05200
C2893       C  0.25060820  0.05365473  0.44444687     0.00800
C2894       C  0.26804223  0.06730553  0.44195595    -0.07700
C2895       C  0.28765428  0.06489355  0.45534000     0.62700
H2896       H  0.28014754  0.09381403  0.42435302     0.13400
H2897       H  0.22059843  0.04410600  0.43229915     0.13400
C2898       C  0.21439525  0.06963097  0.39973707     0.62900
F2899       F  0.30333332  0.07881532  0.44932126    -0.22200
F2900       F  0.29546841  0.04450454  0.45343087    -0.19600
F2901       F  0.28295968  0.06878838  0.47608855    -0.19300
F2902       F  0.21493290  0.08530541  0.38470804    -0.19300
F2903       F  0.19622440  0.07224995  0.41138348    -0.19600
F2904       F  0.21355888  0.05024230  0.38971213    -0.22300
C2905       C  0.25416953  0.93373235  0.63258375    -0.05100
C2906       C  0.26509293  0.91484234  0.62868476     0.00800
C2907       C  0.28675156  0.91337921  0.63380756    -0.07800
C2908       C  0.29645611  0.93075472  0.64372275    -0.05200
C2909       C  0.28516151  0.94924427  0.64866764     0.00800
C2910       C  0.26385450  0.95106339  0.64240475    -0.07700
C2911       C  0.25154500  0.97139710  0.64556317     0.62700
H2912       H  0.23773150  0.93463848  0.62831348     0.13400
H2913       H  0.31285372  0.92981467  0.64824092     0.13400
C2914       C  0.29961897  0.89374137  0.62865466     0.62900
F2915       F  0.26274991  0.98820570  0.63728395    -0.22200
F2916       F  0.24815230  0.97465411  0.66667491    -0.19600
F2917       F  0.23214561  0.97081359  0.63572831    -0.19300
F2918       F  0.29772894  0.88899204  0.60764324    -0.19300
F2919       F  0.29263587  0.87672758  0.64033449    -0.19600
F2920       F  0.32077227  0.89658935  0.63295200    -0.22300
C2921       C  0.23363051  0.86952738  0.56145840    -0.05100
C2922       C  0.22157290  0.87143408  0.57978055     0.00800
C2923       C  0.20059148  0.86361806  0.57991535    -0.07800
C2924       C  0.19272884  0.85389608  0.56174399    -0.05200
C2925       C  0.20499950  0.85150554  0.54366448     0.00800
C2926       C  0.22577396  0.85949357  0.54341645    -0.07700
C2927       C  0.23962452  0.85724961  0.52427221     0.62700
H2928       H  0.24975417  0.87498692  0.56173049     0.13400
H2929       H  0.17684608  0.84762033  0.56182767     0.13400
C2930       C  0.18576302  0.86462887  0.59856520     0.62900
F2931       F  0.25864031  0.86762716  0.52664950    -0.22200
F2932       F  0.22947018  0.86578929  0.50706618    -0.19600
F2933       F  0.24382906  0.83604197  0.52078783    -0.19300
F2934       F  0.19316165  0.87689093  0.61480480    -0.19300
F2935       F  0.18237902  0.84431398  0.60597619    -0.19600
F2936       F  0.16668021  0.87314252  0.59231379    -0.22300
C2937       C  0.23205142  0.94346882  0.56477758    -0.05100
C2938       C  0.25128277  0.94503843  0.55417602     0.00800
C2939       C  0.26794939  0.93105310  0.55920733    -0.07800
C2940       C  0.26457542  0.91562399  0.57470971    -0.05200
C2941       C  0.24531201  0.91395053  0.58527083     0.00800
C2942       C  0.22883967  0.92836072  0.58057966    -0.07700
C2943       C  0.20780711  0.92877293  0.59174274     0.62700
H2944       H  0.21942014  0.95430935  0.56070703     0.13400
H2945       H  0.27683503  0.90438882  0.57852259     0.13400
C2946       C  0.28910865  0.93244162  0.54827396     0.62900
F2947       F  0.20351297  0.94921162  0.59835407    -0.22200
F2948       F  0.20726512  0.91580884  0.60911379    -0.19600
F2949       F  0.19222271  0.92248020  0.57801370    -0.19300
F2950       F  0.29744559  0.95247529  0.55089063    -0.19300
F2951       F  0.28675461  0.92846331  0.52715096    -0.19600
F2952       F  0.30336706  0.91789133  0.55622860    -0.22300
C2953       C  0.26006395  0.93842470  0.37170684    -0.05100
C2954       C  0.26833621  0.91777736  0.37017849     0.00800
C2955       C  0.28809126  0.91476141  0.36008345    -0.07800
C2956       C  0.29796088  0.93228538  0.35071081    -0.05200
C2957       C  0.28936116  0.95268707  0.35175181     0.00800
C2958       C  0.27046402  0.95604824  0.36294553    -0.07700
C2959       C  0.26148408  0.97816200  0.36568704     0.62700
H2960       H  0.24494577  0.94061597  0.37916974     0.13400
H2961       H  0.31266034  0.92998361  0.34239033     0.13400
C2962       C  0.29987545  0.89381263  0.35878543     0.62900
F2963       F  0.24392441  0.97819762  0.37852633    -0.22200
F2964       F  0.25575157  0.98635683  0.34643952    -0.19600
F2965       F  0.27647172  0.99115905  0.37464987    -0.19300
F2966       F  0.29093534  0.87781846  0.37048710    -0.19300
F2967       F  0.32019157  0.89661475  0.36605468    -0.19600
F2968       F  0.30079609  0.88738021  0.33812555    -0.22300
C2969       C  0.23700790  0.85685566  0.42766345    -0.05100
C2970       C  0.22461547  0.87040083  0.41539869     0.00800
C2971       C  0.20323084  0.87359772  0.42075926    -0.07800
C2972       C  0.19516376  0.86328025  0.43853268    -0.05200
C2973       C  0.20728349  0.84911367  0.45065185     0.00800
C2974       C  0.22878870  0.84586387  0.44505862    -0.07700
C2975       C  0.24325451  0.83095914  0.45702951     0.62700
H2976       H  0.25324360  0.85451927  0.42305892     0.13400
H2977       H  0.17877444  0.86587427  0.44250592     0.13400
C2978       C  0.18798041  0.88731666  0.40840839     0.62900
F2979       F  0.26383590  0.83203214  0.44998900    -0.22200
F2980       F  0.23655201  0.81027698  0.45461110    -0.19600
F2981       F  0.24330568  0.83623831  0.47797215    -0.19300
F2982       F  0.19651844  0.89561039  0.39030157    -0.19300
F2983       F  0.18126491  0.90390626  0.42088696    -0.19600
F2984       F  0.17068024  0.87531680  0.40284222    -0.22300
C2985       C  0.23060775  0.92594092  0.41751646    -0.05100
C2986       C  0.24791040  0.91266975  0.41384765     0.00800
C2987       C  0.26612954  0.91450652  0.42642923    -0.07800
C2988       C  0.26678657  0.93056655  0.44160097    -0.05200
C2989       C  0.24949077  0.94394039  0.44510061     0.00800
C2990       C  0.23087287  0.94134347  0.43329539    -0.07700
C2991       C  0.21126768  0.95441228  0.43772583     0.62700
H2992       H  0.21695850  0.92428282  0.40761669     0.13400
H2993       H  0.28078186  0.93245675  0.45111276     0.13400
C2994       C  0.28496713  0.89983191  0.42488086     0.62900
F2995       F  0.19469312  0.94877342  0.42485781    -0.22200
F2996       F  0.21530488  0.97568024  0.43456141    -0.19600
F2997       F  0.20505055  0.95130662  0.45824086    -0.19300
F2998       F  0.30231042  0.91127338  0.41837989    -0.19300
F2999       F  0.28190965  0.88326099  0.41117256    -0.19600
F3000       F  0.28909198  0.89122723  0.44438280    -0.22300
C3001       C  0.06796770  0.72630858  0.62283281    -0.05100
C3002       C  0.07481368  0.74465810  0.63315386     0.00800
C3003       C  0.06522307  0.75041350  0.65234506    -0.07800
C3004       C  0.04988809  0.73700904  0.66090120    -0.05200
C3005       C  0.04291876  0.71850679  0.65074694     0.00800
C3006       C  0.05192020  0.71326535  0.63095913    -0.07700
C3007       C  0.04512988  0.69405258  0.61832908     0.62700
H3008       H  0.07592827  0.72175100  0.60858712     0.13400
H3009       H  0.04322190  0.74131908  0.67591820     0.13400
C3010       C  0.07037746  0.77028902  0.66475351     0.62900
F3011       F  0.05516567  0.69305122  0.59911093    -0.22200
F3012       F  0.02371877  0.69501605  0.61454178    -0.19600
F3013       F  0.04998238  0.67567228  0.62913984    -0.19300
F3014       F  0.05188108  0.78047789  0.67028157    -0.19300
F3015       F  0.08246373  0.78471389  0.65388472    -0.19600
F3016       F  0.08097729  0.76456997  0.68279524    -0.22300
C3017       C  0.13848672  0.76400583  0.57237421    -0.05100
C3018       C  0.12509579  0.77801265  0.58298056     0.00800
C3019       C  0.12315991  0.79913684  0.57593306    -0.07800
C3020       C  0.13347897  0.80508714  0.55745707    -0.05200
C3021       C  0.14667474  0.79110344  0.54636201     0.00800
C3022       C  0.14982361  0.77023746  0.55440908    -0.07700
C3023       C  0.16518438  0.75459856  0.54470109     0.62700
H3024       H  0.14034233  0.74817554  0.57869764     0.13400
H3025       H  0.13151265  0.82113632  0.55176737     0.13400
C3026       C  0.11024146  0.81549394  0.58765785     0.62900
F3027       F  0.16469974  0.73506828  0.55460950    -0.22200
F3028       F  0.18545939  0.76231391  0.54630656    -0.19600
F3029       F  0.16026053  0.75138700  0.52393994    -0.19300
F3030       F  0.11451843  0.81466720  0.60886298    -0.19300
F3031       F  0.08921831  0.81158568  0.58429800    -0.19600
F3032       F  0.11448677  0.83589575  0.58087096    -0.22300
C3033       C  0.08515462  0.74403182  0.57303735    -0.05100
C3034       C  0.08056994  0.75990133  0.58771323     0.00800
C3035       C  0.06088444  0.77044780  0.58689198    -0.07800
C3036       C  0.04675923  0.76507478  0.57096261    -0.05200
C3037       C  0.05106833  0.74882446  0.55660263     0.00800
C3038       C  0.07032129  0.73749976  0.55811728    -0.07700
C3039       C  0.07571391  0.71801342  0.54523727     0.62700
H3040       H  0.09998523  0.73561168  0.57431537     0.13400
H3041       H  0.03193894  0.77357087  0.56983267     0.13400
C3042       C  0.05372997  0.78722547  0.60230641     0.62900
F3043       F  0.08231800  0.70191798  0.55845085    -0.22200
F3044       F  0.09189928  0.72282933  0.53158888    -0.19600
F3045       F  0.05887003  0.71037188  0.53388879    -0.19300
F3046       F  0.06941292  0.79348060  0.61582429    -0.19300
F3047       F  0.03712835  0.77937919  0.61393599    -0.19600
F3048       F  0.04691526  0.80498872  0.59149997    -0.22300
C3049       C  0.05893294  0.72602912  0.37766974    -0.05100
C3050       C  0.07900857  0.71656436  0.37745221     0.00800
C3051       C  0.08114060  0.69555187  0.36964065    -0.07800
C3052       C  0.06338374  0.68548410  0.36111858    -0.05200
C3053       C  0.04361087  0.69528970  0.36066426     0.00800
C3054       C  0.04105926  0.71555034  0.36976570    -0.07700
C3055       C  0.01950013  0.72581761  0.37141309     0.62700
H3056       H  0.05740425  0.74205995  0.38342883     0.13400
H3057       H  0.06504667  0.66975114  0.35447932     0.13400
C3058       C  0.10135824  0.68263872  0.36992303     0.62900
F3059       F  0.02014983  0.74458056  0.38261436    -0.22200
F3060       F  0.00583456  0.71220167  0.38155874    -0.19600
F3061       F  0.01178255  0.73021177  0.35165852    -0.19300
F3062       F  0.09767570  0.66358634  0.38001152    -0.19300
F3063       F  0.11779860  0.69241550  0.38010578    -0.19600
F3064       F  0.10748676  0.67848128  0.34956772    -0.22300
C3065       C  0.13189673  0.75245765  0.43807638    -0.05100
C3066       C  0.12635964  0.76332654  0.41971954     0.00800
C3067       C  0.12963915  0.78551128  0.41852559    -0.07800
C3068       C  0.13939463  0.79586359  0.43546538    -0.05200
C3069       C  0.14594458  0.78481012  0.45341496     0.00800
C3070       C  0.14152846  0.76283832  0.45506670    -0.07700
C3071       C  0.14595564  0.75065006  0.47503848     0.62700
H3072       H  0.12891972  0.73560407  0.43887452     0.13400
H3073       H  0.14252522  0.81270879  0.43456918     0.13400
C3074       C  0.12284949  0.79830164  0.39953851     0.62900
F3075       F  0.13795463  0.73027302  0.47434394    -0.22200
F3076       F  0.13658697  0.76105340  0.49165072    -0.19600
F3077       F  0.16740550  0.74918032  0.47832519    -0.19300
F3078       F  0.10223266  0.79372235  0.39445506    -0.19300
F3079       F  0.13563596  0.79351679  0.38271502    -0.19600
F3080       F  0.12413857  0.81988593  0.40317250    -0.22300
C3081       C  0.06346780  0.72423541  0.44686372    -0.05100
C3082       C  0.05076248  0.74234542  0.44810786     0.00800
C3083       C  0.05462467  0.75985994  0.43486408    -0.07800
C3084       C  0.07131687  0.75850687  0.42057050    -0.05200
C3085       C  0.08390693  0.74030525  0.41912606     0.00800
C3086       C  0.08017784  0.72292132  0.43262724    -0.07700
C3087       C  0.09328864  0.70284661  0.43294194     0.62700
H3088       H  0.06037775  0.71103642  0.45730790     0.13400
H3089       H  0.07429706  0.77136862  0.40982070     0.13400
C3090       C  0.04114987  0.77973891  0.43577675     0.62900
F3091       F  0.10061279  0.69933749  0.45304060    -0.22200
F3092       F  0.11048830  0.70373720  0.41981459    -0.19600
F3093       F  0.08086025  0.68591339  0.42704996    -0.19300
F3094       F  0.04202608  0.78841629  0.45560359    -0.19300
F3095       F  0.02051366  0.77481253  0.43107522    -0.19600
F3096       F  0.04788107  0.79494596  0.42165315    -0.22300
C3097       C  0.93322210  0.69792686  0.64880246    -0.05100
C3098       C  0.95147302  0.71022953  0.65017070     0.00800
C3099       C  0.95178553  0.73070666  0.64117610    -0.07800
C3100       C  0.93332575  0.73847924  0.63164464    -0.05200
C3101       C  0.91477906  0.72639864  0.63074370     0.00800
C3102       C  0.91475769  0.70557937  0.63930341    -0.07700
C3103       C  0.89618787  0.69046375  0.63893806     0.62700
H3104       H  0.93328544  0.68215023  0.65558080     0.13400
H3105       H  0.93309175  0.75436509  0.62523248     0.13400
C3106       C  0.97163766  0.74403262  0.64128070     0.62900
F3107       F  0.90213469  0.67191120  0.62901674    -0.22200
F3108       F  0.87876360  0.69834800  0.62869095    -0.19600
F3109       F  0.89043370  0.68569918  0.65928025    -0.19300
F3110       F  0.98784148  0.73292615  0.63181832    -0.19300
F3111       F  0.97726322  0.74879698  0.66162414    -0.19600
F3112       F  0.96893058  0.76292326  0.63054942    -0.22300
C3113       C  0.86750663  0.75572642  0.56255152    -0.05100
C3114       C  0.86855460  0.76685000  0.58158165     0.00800
C3115       C  0.86297662  0.78863946  0.58192940    -0.07800
C3116       C  0.85416533  0.79776304  0.56383251    -0.05200
C3117       C  0.85180537  0.78620491  0.54529020     0.00800
C3118       C  0.85979892  0.76531730  0.54414434    -0.07700
C3119       C  0.86101290  0.75369607  0.52341189     0.62700
H3120       H  0.87257979  0.73936033  0.56221376     0.13400
H3121       H  0.84867694  0.81399266  0.56415547     0.13400
C3122       C  0.86694511  0.80251669  0.60092387     0.62900
F3123       F  0.87160463  0.76607351  0.50896008    -0.22200
F3124       F  0.84099816  0.74957913  0.51605850    -0.19600
F3125       F  0.87171133  0.73463536  0.52525285    -0.19300
F3126       F  0.86463854  0.82382495  0.59618667    -0.19300
F3127       F  0.88726091  0.79946515  0.60809995    -0.19600
F3128       F  0.85287787  0.79764632  0.61665697    -0.22300
C3129       C  0.92233254  0.76210959  0.58234347    -0.05100
C3130       C  0.91056315  0.74380349  0.58626187     0.00800
C3131       C  0.91482681  0.72494944  0.57504013    -0.07800
C3132       C  0.93151363  0.72486777  0.56075858    -0.05200
C3133       C  0.94323163  0.74317295  0.55681523     0.00800
C3134       C  0.93870248  0.76217981  0.56762975    -0.07700
C3135       C  0.95102638  0.78234387  0.56354547     0.62700
H3136       H  0.91861361  0.77627080  0.59114110     0.13400
H3137       H  0.93509597  0.71052517  0.55210671     0.13400
C3138       C  0.90201615  0.70482068  0.57698097     0.62900
F3139       F  0.94353838  0.79914736  0.57532782    -0.22200
F3140       F  0.94950903  0.78786304  0.54265621    -0.19600
F3141       F  0.97194984  0.77924027  0.56861147    -0.19300
F3142       F  0.89624608  0.69796191  0.55724330    -0.19300
F3143       F  0.88380220  0.70754016  0.58842049    -0.19600
F3144       F  0.91415071  0.68929282  0.58639517    -0.22300
C3145       C  0.92248540  0.69723975  0.38534994    -0.05100
C3146       C  0.91414007  0.71511450  0.37539325     0.00800
C3147       C  0.92501624  0.72412751  0.35825542    -0.07800
C3148       C  0.94304583  0.71369679  0.35057074    -0.05200
C3149       C  0.95106773  0.69508919  0.35992835     0.00800
C3150       C  0.94109029  0.68734319  0.37845041    -0.07700
C3151       C  0.94972942  0.66896793  0.39130516     0.62700
H3152       H  0.91404346  0.69088029  0.39861468     0.13400
H3153       H  0.95089085  0.72006111  0.33692085     0.13400
C3154       C  0.91805905  0.74497661  0.34848433     0.62900
F3155       F  0.93864932  0.66607626  0.40974594    -0.22200
F3156       F  0.97043510  0.67294122  0.39667866    -0.19600
F3157       F  0.94841394  0.65033589  0.38002895    -0.19300
F3158       F  0.91559019  0.76015361  0.36389237    -0.19300
F3159       F  0.89922395  0.74236628  0.33805630    -0.19600
F3160       F  0.93267490  0.75250593  0.33424814    -0.22300
C3161       C  0.87434430  0.77055697  0.42793902    -0.05100
C3162       C  0.86409323  0.75145809  0.42345080     0.00800
C3163       C  0.84572983  0.74602636  0.43478208    -0.07800
C3164       C  0.83833904  0.76010152  0.45012324    -0.05200
C3165       C  0.84850810  0.77938052  0.45478022     0.00800
C3166       C  0.86712729  0.78462581  0.44347338    -0.07700
C3167       C  0.87934610  0.80496928  0.44714628     0.62700
H3168       H  0.88781286  0.77477742  0.41850962     0.13400
H3169       H  0.82419688  0.75576392  0.45856824     0.13400
C3170       C  0.83306900  0.72586262  0.43163864     0.62900
F3171       F  0.89671981  0.80657808  0.43415427    -0.22200
F3172       F  0.88654789  0.80553951  0.46755779    -0.19600
F3173       F  0.86656079  0.82230609  0.44323743    -0.19300
F3174       F  0.84194002  0.71190243  0.41757422    -0.19300
F3175       F  0.81317344  0.73117260  0.42455945    -0.19600
F3176       F  0.83115727  0.71540537  0.45058948    -0.22300
C3177       C  0.92716815  0.71979231  0.44996255    -0.05100
C3178       C  0.94155362  0.73655312  0.44846874     0.00800
C3179       C  0.93885403  0.75217886  0.43275615    -0.07800
C3180       C  0.92283348  0.74938091  0.41790496    -0.05200
C3181       C  0.90852003  0.73262243  0.41934693     0.00800
C3182       C  0.91040775  0.71769227  0.43583057    -0.07700
C3183       C  0.89530767  0.69946821  0.43940442     0.62700
H3184       H  0.92895504  0.70833014  0.46250575     0.13400
H3185       H  0.92086717  0.76064414  0.40527496     0.13400
C3186       C  0.95190199  0.77230568  0.43238453     0.62900
F3187       F  0.88444630  0.70287260  0.45786214    -0.22200
F3188       F  0.90651059  0.68071845  0.44113752    -0.19600
F3189       F  0.88092383  0.69706757  0.42343671    -0.19300
F3190       F  0.97253315  0.76772615  0.42736015    -0.19300
F3191       F  0.95120788  0.78190878  0.45181604    -0.19600
F3192       F  0.94437983  0.78669890  0.41780582    -0.22300
C3193       C  0.73514780  0.04223156  0.65100124    -0.05100
C3194       C  0.71370479  0.04153489  0.64552306     0.00800
C3195       C  0.70561152  0.05723866  0.63163167    -0.07800
C3196       C  0.71922615  0.07325694  0.62437100    -0.05200
C3197       C  0.74039912  0.07417189  0.63037758     0.00800
C3198       C  0.74867175  0.05824909  0.64367198    -0.07700
C3199       C  0.77158722  0.05819485  0.65041229     0.62700
H3200       H  0.74127545  0.03020811  0.66147277     0.13400
H3201       H  0.71327620  0.08563437  0.61427346     0.13400
C3202       C  0.68268145  0.05771703  0.62487147     0.62900
F3203       F  0.77726856  0.03912700  0.65958112    -0.22200
F3204       F  0.77490855  0.07413854  0.66482001    -0.19600
F3205       F  0.78457194  0.06134260  0.63334946    -0.19300
F3206       F  0.67803724  0.07538221  0.61283160    -0.19300
F3207       F  0.66974974  0.05818743  0.64228373    -0.19600
F3208       F  0.67825340  0.03999498  0.61296883    -0.22300
C3209       C  0.79107743  0.11099462  0.56917123    -0.05100
C3210       C  0.77894462  0.12379406  0.58244855     0.00800
C3211       C  0.77608051  0.14549782  0.57714532    -0.07800
C3212       C  0.78607598  0.15353688  0.55910683    -0.05200
C3213       C  0.79823073  0.14063368  0.54581174     0.00800
C3214       C  0.79994645  0.11867163  0.55049830    -0.07700
C3215       C  0.81034160  0.10300609  0.53570876     0.62700
H3216       H  0.79423775  0.09488580  0.57376233     0.13400
H3217       H  0.78484117  0.17028766  0.55559093     0.13400
C3218       C  0.76321843  0.16061085  0.59056983     0.62900
F3219       F  0.80598354  0.08223629  0.54117419    -0.22200
F3220       F  0.83193583  0.10554534  0.53602610    -0.19600
F3221       F  0.80280679  0.10617201  0.51566205    -0.19300
F3222       F  0.77501536  0.16696407  0.60758207    -0.19300
F3223       F  0.74494718  0.15105346  0.59747129    -0.19600
F3224       F  0.75744660  0.17856253  0.57946574    -0.22300
C3225       C  0.73533842  0.06740013  0.55571580    -0.05100
C3226       C  0.75016190  0.05106280  0.55344335     0.00800
C3227       C  0.76797104  0.05032678  0.56668525    -0.07800
C3228       C  0.76919405  0.06484224  0.58319374    -0.05200
C3229       C  0.75454705  0.08130244  0.58544410     0.00800
C3230       C  0.73748699  0.08295214  0.57128096    -0.07700
C3231       C  0.72126515  0.10057104  0.57173516     0.62700
H3232       H  0.72205550  0.06809284  0.54508740     0.13400
H3233       H  0.78228743  0.06423252  0.59397204     0.13400
C3234       C  0.78610749  0.03510523  0.56272173     0.62900
F3235       F  0.72207095  0.11162964  0.55305072    -0.22200
F3236       F  0.72435692  0.11473429  0.58786386    -0.19600
F3237       F  0.70141693  0.09190466  0.57394077    -0.19300
F3238       F  0.79315513  0.03740812  0.54236870    -0.19300
F3239       F  0.77973576  0.01446100  0.56579142    -0.19600
F3240       F  0.80290900  0.03893047  0.57595643    -0.22300
C3241       C  0.73320694  0.04653673  0.34245380    -0.05100
C3242       C  0.71207848  0.04378858  0.34863489     0.00800
C3243       C  0.70360956  0.05777448  0.36402823    -0.07800
C3244       C  0.71676660  0.07345828  0.37275851    -0.05200
C3245       C  0.73760556  0.07628772  0.36616173     0.00800
C3246       C  0.74601109  0.06270326  0.35064735    -0.07700
C3247       C  0.76832671  0.06529129  0.34248335     0.62700
H3248       H  0.73968752  0.03606564  0.33069423     0.13400
H3249       H  0.71067248  0.08414432  0.38452586     0.13400
C3250       C  0.68072450  0.05691816  0.37087251     0.62900
F3251       F  0.76954907  0.08333085  0.33027246    -0.22200
F3252       F  0.77450565  0.04824263  0.33030256    -0.19600
F3253       F  0.78232291  0.06691466  0.35894961    -0.19300
F3254       F  0.67688945  0.03811949  0.38132425    -0.19300
F3255       F  0.66772484  0.05848477  0.35357042    -0.19600
F3256       F  0.67557928  0.07337823  0.38426160    -0.22300
C3257       C  0.79001405  0.11094812  0.42779268    -0.05100
C3258       C  0.77423932  0.12299664  0.41803407     0.00800
C3259       C  0.76909110  0.14318914  0.42635635    -0.07800
C3260       C  0.78056276  0.15083041  0.44357076    -0.05200
C3261       C  0.79689819  0.13917879  0.45312747     0.00800
C3262       C  0.80141991  0.11847459  0.44523982    -0.07700
C3263       C  0.81819443  0.10416996  0.45471053     0.62700
H3264       H  0.79396396  0.09575174  0.42101178     0.13400
H3265       H  0.77669799  0.16647924  0.44942051     0.13400
C3266       C  0.75172676  0.15758844  0.41811499     0.62900
F3267       F  0.81847897  0.08428683  0.44555723    -0.22200
F3268       F  0.81431273  0.10135068  0.47578804    -0.19600
F3269       F  0.83786795  0.11303613  0.45190663    -0.19300
F3270       F  0.73999982  0.14885894  0.40217955    -0.19300
F3271       F  0.76056524  0.17619836  0.41083065    -0.19600
F3272       F  0.73804425  0.16238657  0.43428113    -0.22300
C3273       C  0.76579512  0.06281199  0.41179507    -0.05100
C3274       C  0.75195946  0.08012318  0.41190849     0.00800
C3275       C  0.73703519  0.08218210  0.42822266    -0.07800
C3276       C  0.73663595  0.06676749  0.44402764    -0.05200
C3277       C  0.75072681  0.04963691  0.44414430     0.00800
C3278       C  0.76605152  0.04788422  0.42808071    -0.07700
C3279       C  0.78301933  0.03087693  0.42754951     0.62700
H3280       H  0.77724369  0.06164440  0.39929745     0.13400
H3281       H  0.72501251  0.06799622  0.45640505     0.13400
C3282       C  0.72105940  0.09995806  0.42969907     0.62900
F3283       F  0.77736464  0.01534103  0.41341084    -0.22200
F3284       F  0.78637892  0.02166836  0.44690566    -0.19600
F3285       F  0.80192912  0.03962517  0.42119249    -0.19300
F3286       F  0.70110629  0.09143191  0.43151555    -0.19300
F3287       F  0.72111627  0.11309109  0.41244698    -0.19600
F3288       F  0.72524192  0.11196141  0.44730232    -0.22300
C3289       C  0.74073944  0.93474388  0.62796120    -0.05100
C3290       C  0.73245551  0.91421440  0.63027926     0.00800
C3291       C  0.71293758  0.91149569  0.64087717    -0.07800
C3292       C  0.70281354  0.92943850  0.64913280    -0.05200
C3293       C  0.71120780  0.94977479  0.64692764     0.00800
C3294       C  0.73023688  0.95269835  0.63589707    -0.07700
C3295       C  0.73907802  0.97471866  0.63228990     0.62700
H3296       H  0.75561922  0.93661417  0.61993384     0.13400
H3297       H  0.68799895  0.92755451  0.65737384     0.13400
C3298       C  0.70140802  0.89056707  0.64356780     0.62900
F3299       F  0.75744955  0.97419152  0.62064302    -0.22200
F3300       F  0.74342079  0.98419834  0.65128999    -0.19600
F3301       F  0.72451024  0.98692550  0.62158289    -0.19300
F3302       F  0.69887343  0.88646251  0.66467999    -0.19300
F3303       F  0.71148665  0.87343237  0.63465579    -0.19600
F3304       F  0.68172058  0.89222125  0.63445476    -0.22300
C3305       C  0.79273935  0.87268960  0.57603634    -0.05100
C3306       C  0.77151219  0.86812257  0.57983699     0.00800
C3307       C  0.76059395  0.85455237  0.56606571    -0.07800
C3308       C  0.77132990  0.84602658  0.54878322    -0.05200
C3309       C  0.79269474  0.85034215  0.54485252     0.00800
C3310       C  0.80360178  0.86424266  0.55864999    -0.07700
C3311       C  0.82660971  0.86993163  0.55555788     0.62700
H3312       H  0.80081741  0.88283235  0.58705411     0.13400
H3313       H  0.76295787  0.83570610  0.53815683     0.13400
C3314       C  0.73766722  0.84902817  0.56958737     0.62900
F3315       F  0.83416394  0.88258230  0.57154961    -0.22200
F3316       F  0.82898739  0.88097463  0.53700407    -0.19600
F3317       F  0.83875846  0.85174420  0.55508116    -0.19300
F3318       F  0.72558594  0.86692125  0.56658153    -0.19300
F3319       F  0.73472024  0.84149707  0.58970959    -0.19600
F3320       F  0.73069445  0.83365791  0.55581506    -0.22300
C3321       C  0.76583132  0.92069941  0.57870205    -0.05100
C3322       C  0.74749343  0.91008363  0.58489143     0.00800
C3323       C  0.72774025  0.91661413  0.57673071    -0.07800
C3324       C  0.72732264  0.93286334  0.56174636    -0.05200
C3325       C  0.74576454  0.94290401  0.55513622     0.00800
C3326       C  0.76531284  0.93732359  0.56415022    -0.07700
C3327       C  0.78533115  0.94931642  0.55893817     0.62700
H3328       H  0.78052893  0.91620466  0.58600737     0.13400
H3329       H  0.71241739  0.93776323  0.55501239     0.13400
C3330       C  0.70671664  0.90737403  0.58312993     0.62900
F3331       F  0.80251327  0.94146992  0.56981342    -0.22200
F3332       F  0.78284781  0.97039606  0.56422747    -0.19600
F3333       F  0.78969456  0.94784297  0.53781330    -0.19300
F3334       F  0.69518742  0.92271183  0.59353326    -0.19300
F3335       F  0.70858863  0.88989740  0.59593564    -0.19600
F3336       F  0.69572008  0.90128054  0.56546200    -0.22300
C3337       C  0.71239427  0.91889965  0.37190809    -0.05100
C3338       C  0.73418567  0.91736542  0.36915774     0.00800
C3339       C  0.74476920  0.93309693  0.35742160    -0.07800
C3340       C  0.73303837  0.95000934  0.34889222    -0.05200
C3341       C  0.71110046  0.95161441  0.35153739     0.00800
C3342       C  0.70057410  0.93588345  0.36362863    -0.07700
C3343       C  0.67693992  0.93640214  0.36736793     0.62700
H3344       H  0.70453950  0.90620671  0.38006448     0.13400
H3345       H  0.74095553  0.96197177  0.33965061     0.13400
C3346       C  0.76825416  0.93163798  0.35331974     0.62900
F3347       F  0.67000747  0.91869107  0.37813796    -0.22200
F3348       F  0.66638119  0.93708403  0.34844996    -0.19600
F3349       F  0.67174380  0.95400032  0.37919256    -0.19300
F3350       F  0.77250859  0.91411310  0.34106039    -0.19300
F3351       F  0.77899870  0.92978936  0.37200621    -0.19600
F3352       F  0.77576243  0.94938817  0.34301117    -0.22300
C3353       C  0.75981593  0.86103678  0.43352862    -0.05100
C3354       C  0.77255641  0.86722639  0.41667786     0.00800
C3355       C  0.79459613  0.86385005  0.41782023    -0.07800
C3356       C  0.80296887  0.85375835  0.43564963    -0.05200
C3357       C  0.79017212  0.84684761  0.45224429     0.00800
C3358       C  0.76818954  0.85085089  0.45136225    -0.07700
C3359       C  0.75360841  0.84480936  0.46920109     0.62700
H3360       H  0.74305969  0.86375101  0.43236368     0.13400
H3361       H  0.81972602  0.85073562  0.43656401     0.13400
C3362       C  0.80936602  0.87111894  0.40052995     0.62900
F3363       F  0.73352452  0.85287079  0.46634755    -0.22200
F3364       F  0.76129524  0.85274016  0.48785792    -0.19600
F3365       F  0.75209855  0.82299826  0.47051552    -0.19300
F3366       F  0.83028608  0.86835126  0.40597029    -0.19300
F3367       F  0.80621880  0.89240394  0.39645713    -0.19600
F3368       F  0.80576497  0.85964867  0.38250765    -0.22300
C3369       C  0.76687164  0.92277074  0.41911183    -0.05100
C3370       C  0.74950610  0.91005095  0.41438689     0.00800
C3371       C  0.73075133  0.91211854  0.42624335    -0.07800
C3372       C  0.72967356  0.92796341  0.44159973    -0.05200
C3373       C  0.74685332  0.94113082  0.44580040     0.00800
C3374       C  0.76595499  0.93831435  0.43476474    -0.07700
C3375       C  0.78529639  0.95149110  0.43968155     0.62700
H3376       H  0.78117742  0.92041646  0.41030121     0.13400
H3377       H  0.71532762  0.92997288  0.45058546     0.13400
C3378       C  0.71173702  0.89785864  0.42393929     0.62900
F3379       F  0.80244238  0.94548483  0.42768800    -0.22200
F3380       F  0.79065865  0.94903749  0.46051101    -0.19600
F3381       F  0.78126152  0.97264221  0.43572111    -0.19300
F3382       F  0.70759328  0.88822759  0.44294958    -0.19300
F3383       F  0.71449848  0.88209456  0.40920766    -0.19600
F3384       F  0.69445410  0.90997170  0.41835288    -0.22300
loop_ 
_geom_bond_atom_site_label_1 
_geom_bond_atom_site_label_2 
_geom_bond_distance 
_geom_bond_site_symmetry_2 
_ccdc_geom_bond_type 
N1            C5   1.357       .  A
N1            C2   1.356       .  A
N1         C3370   1.436       .  S
C2            C3   1.384       .  A
C2         C3354   1.489       .  S
C3            C4   1.381       .  A
C3            H6   1.082       .  S
C4            C5   1.382       .  A
C4            H7   1.082       .  S
C5         C3338   1.487       .  S
N8           C12   1.357       .  A
N8            C9   1.356       .  A
N8         C3322   1.438       .  S
C9           C10   1.382       .  A
C9         C3306   1.486       .  S
C10          C11   1.381       .  A
C10          H13   1.082       .  S
C11          C12   1.384       .  A
C11          H14   1.082       .  S
C12        C3290   1.485       .  S
N15          C19   1.356       .  A
N15          C16   1.357       .  A
N15        C3274   1.436       .  S
C16          C17   1.384       .  A
C16        C3258   1.491       .  S
C17          C18   1.381       .  A
C17          H20   1.082       .  S
C18          C19   1.384       .  A
C18          H21   1.081       .  S
C19        C3245   1.490       .  S
N22          C26   1.355       .  A
N22          C23   1.361       .  A
N22        C3229   1.437       .  S
C23          C24   1.385       .  A
C23        C3210   1.496       .  S
C24          C25   1.380       .  A
C24          H27   1.080       .  S
C25          C26   1.381       .  A
C25          H28   1.081       .  S
C26        C3197   1.488       .  S
N29          C34   1.351       .  A
N29          C33   1.352       .  A
N29          H61   1.039       .  S
N30          C37   1.349       .  A
N30          C38   1.349   1_565  A
N31          C36   1.352       .  A
N31          C35   1.352       .  A
N31          H62   1.040       .  S
N32          C39   1.348       .  A
N32          C40   1.349   1_565  A
C33          C41   1.387       .  A
C33          C49   1.412       .  A
C34          C50   1.414       .  A
C34          C42   1.389       .  A
C35          C43   1.388       .  A
C35          C52   1.414       .  A
C36          C51   1.413       .  A
C36          C44   1.387       .  A
C37          C49   1.408       .  A
C37          C45   1.386       .  A
C38          C52   1.411       .  A
C38          C46   1.386       .  A
C39          C47   1.387       .  A
C39          C50   1.409       .  A
C40          C48   1.387       .  A
C40          C51   1.410       .  A
C41          C42   1.376       .  A
C41          H53   1.083       .  S
C42          H54   1.082       .  S
C43          C44   1.377       .  A
C43          H55   1.083       .  S
C44          H56   1.082       .  S
C45          C46   1.374   1_565  A
C45          H57   1.083       .  S
C46          H58   1.082       .  S
C47          C48   1.374   1_565  A
C47          H59   1.082       .  S
C48          H60   1.083       .  S
C49        C3373   1.483       .  S
C50        C3325   1.480       .  S
C51        C3226   1.484       .  S
C52        C3277   1.486       .  S
N63          C67   1.353       .  A
N63          C64   1.355       .  A
N63        C3181   1.437       .  S
C64          C65   1.384       .  A
C64        C3162   1.482       .  S
C65          C66   1.381       .  A
C65          H68   1.082       .  S
C66          C67   1.384       .  A
C66          H69   1.081       .  S
C67        C3146   1.485       .  S
N70          C74   1.353       .  A
N70          C71   1.354       .  A
N70        C3130   1.432       .  S
C71          C72   1.383       .  A
C71        C3101   1.486       .  S
C72          C73   1.383       .  A
C72          H75   1.082       .  S
C73          C74   1.385       .  A
C73          H76   1.081       .  S
C74        C3114   1.491       .  S
N77          C81   1.355       .  A
N77          C78   1.356       .  A
N77        C3085   1.434       .  S
C78          C79   1.384       .  A
C78        C3050   1.491       .  S
C79          C80   1.382       .  A
C79          H82   1.082       .  S
C80          C81   1.383       .  A
C80          H83   1.081       .  S
C81        C3066   1.489       .  S
N84          C88   1.354       .  A
N84          C85   1.358       .  A
N84        C3034   1.438       .  S
C85          C86   1.385       .  A
C85        C3002   1.487       .  S
C86          C87   1.379       .  A
C86          H89   1.082       .  S
C87          C88   1.381       .  A
C87          H90   1.082       .  S
C88        C3018   1.480       .  S
N91          C96   1.352       .  A
N91          C95   1.350       .  A
N91         H123   1.039       .  S
N92          C99   1.347       .  A
N92         C100   1.349   1_655  A
N93          C98   1.350       .  A
N93          C97   1.353       .  A
N93         H124   1.040       .  S
N94         C101   1.350       .  A
N94         C102   1.348   1_655  A
C95         C103   1.388       .  A
C95         C111   1.413       .  A
C96         C112   1.413       .  A
C96         C104   1.387       .  A
C97         C105   1.387       .  A
C97         C114   1.415       .  A
C98         C113   1.412       .  A
C98         C106   1.388       .  A
C99         C111   1.407       .  A
C99         C107   1.387       .  A
C100        C114   1.411       .  A
C100        C108   1.387       .  A
C101        C109   1.387       .  A
C101        C112   1.411       .  A
C102        C110   1.387       .  A
C102        C113   1.410       .  A
C103        C104   1.376       .  A
C103        H115   1.083       .  S
C104        H116   1.083       .  S
C105        C106   1.376       .  A
C105        H117   1.082       .  S
C106        H118   1.083       .  S
C107        C108   1.373   1_655  A
C107        H119   1.083       .  S
C108        H120   1.083       .  S
C109        C110   1.376   1_655  A
C109        H121   1.083       .  S
C110        H122   1.083       .  S
C111       C3133   1.477       .  S
C112       C3178   1.488       .  S
C113       C3082   1.478       .  S
C114       C3037   1.489       .  S
N125        C129   1.357       .  A
N125        C126   1.353       .  A
N125       C2986   1.435       .  S
C126        C127   1.382       .  A
C126       C2970   1.482       .  S
C127        C128   1.382       .  A
C127        H130   1.082       .  S
C128        C129   1.386       .  A
C128        H131   1.082       .  S
C129       C2954   1.490       .  S
N132        C136   1.354       .  A
N132        C133   1.357       .  A
N132       C2941   1.439       .  S
C133        C134   1.384       .  A
C133       C2922   1.486       .  S
C134        C135   1.380       .  A
C134        H137   1.082       .  S
C135        C136   1.382       .  A
C135        H138   1.082       .  S
C136       C2906   1.484       .  S
N139        C143   1.359       .  A
N139        C140   1.354       .  A
N139       C2890   1.441       .  S
C140        C141   1.380       .  A
C140       C2877   1.480       .  S
C141        C142   1.378       .  A
C141        H144   1.082       .  S
C142        C143   1.385       .  A
C142        H145   1.080       .  S
C143       C2858   1.489       .  S
N146        C150   1.358       .  A
N146        C147   1.359       .  A
N146       C2842   1.440       .  S
C147        C148   1.384       .  A
C147       C2826   1.488       .  S
C148        C149   1.378       .  A
C148        H151   1.082       .  S
C149        C150   1.382       .  A
C149        H152   1.082       .  S
C150       C2810   1.486       .  S
N153        C158   1.351       .  A
N153        C157   1.352   1_565  A
N153        H185   1.039       .  S
N154        C161   1.350       .  A
N154        C162   1.351       .  A
N155        C160   1.352       .  A
N155        C159   1.354   1_565  A
N155        H186   1.040       .  S
N156        C163   1.350       .  A
N156        C164   1.349       .  A
C157        C165   1.388       .  A
C157        C173   1.414       .  A
C158        C174   1.412       .  A
C158        C166   1.387       .  A
C159        C167   1.388       .  A
C159        C176   1.420       .  A
C160        C175   1.414       .  A
C160        C168   1.386       .  A
C161        C173   1.412       .  A
C161        C169   1.386       .  A
C162        C176   1.416       .  A
C162        C170   1.388       .  A
C163        C171   1.386       .  A
C163        C174   1.410       .  A
C164        C172   1.387       .  A
C164        C175   1.410       .  A
C165        C166   1.377   1_545  A
C165        H177   1.083       .  S
C166        H178   1.083       .  S
C167        C168   1.378   1_545  A
C167        H179   1.082       .  S
C168        H180   1.082       .  S
C169        C170   1.376       .  A
C169        H181   1.083       .  S
C170        H182   1.082       .  S
C171        C172   1.373       .  A
C171        H183   1.083       .  S
C172        H184   1.083       .  S
C173       C2893   1.487       .  S
C174       C2989   1.483       .  S
C175       C2938   1.484       .  S
C176       C2845   1.497       .  S
N187        C191   1.356       .  A
N187        C188   1.356       .  A
N187       C2794   1.440       .  S
C188        C189   1.384       .  A
C188       C2778   1.482       .  S
C189        C190   1.380       .  A
C189        H192   1.082       .  S
C190        C191   1.381       .  A
C190        H193   1.082       .  S
C191       C2765   1.484       .  S
N194        C198   1.359       .  A
N194        C195   1.358       .  A
N194       C2746   1.436       .  S
C195        C196   1.381       .  A
C195       C2730   1.487       .  S
C196        C197   1.381       .  A
C196        H199   1.082       .  S
C197        C198   1.385       .  A
C197        H200   1.082       .  S
C198       C2717   1.493       .  S
N201        C205   1.360       .  A
N201        C202   1.361       .  A
N201       C2701   1.443       .  S
C202        C203   1.385       .  A
C202       C2685   1.489       .  S
C203        C204   1.377       .  A
C203        H206   1.082       .  S
C204        C205   1.380       .  A
C204        H207   1.082       .  S
C205       C2666   1.489       .  S
N208        C212   1.356       .  A
N208        C209   1.354       .  A
N208       C2653   1.437       .  S
C209        C210   1.383       .  A
C209       C2637   1.483       .  S
C210        C211   1.379       .  A
C210        H213   1.082       .  S
C211        C212   1.382       .  A
C211        H214   1.082       .  S
C212       C2621   1.483       .  S
N215        C220   1.351   1_565  A
N215        C219   1.348       .  A
N215        H247   1.035       .  S
N216        C223   1.351       .  A
N216        C224   1.353       .  A
N217        C222   1.348   1_565  A
N217        C221   1.348       .  A
N217        H248   1.036       .  S
N218        C225   1.356       .  A
N218        C226   1.354       .  A
C219        C227   1.391       .  A
C219        C235   1.417       .  A
C220        C236   1.413       .  A
C220        C228   1.384       .  A
C221        C229   1.395       .  A
C221        C238   1.423       .  A
C222        C237   1.407       .  A
C222        C230   1.380       .  A
C223        C235   1.419       .  A
C223        C231   1.387       .  A
C224        C238   1.424       .  A
C224        C232   1.388       .  A
C225        C233   1.384       .  A
C225        C236   1.401       .  A
C226        C234   1.383       .  A
C226        C237   1.402       .  A
C227        C228   1.379   1_565  A
C227        H239   1.082       .  S
C228        H240   1.083       .  S
C229        C230   1.381   1_565  A
C229        H241   1.082       .  S
C230        H242   1.082       .  S
C231        C232   1.372       .  A
C231        H243   1.083       .  S
C232        H244   1.082       .  S
C233        C234   1.362       .  A
C233        H245   1.083       .  S
C234        H246   1.083       .  S
C235       C2797   1.482       .  S
C236       C2698   1.484       .  S
C237       C2650   1.492       .  S
C238       C2749   1.491       .  S
N249        C253   1.358       .  A
N249        C250   1.358       .  A
N249       C2602   1.440       .  S
C250        C251   1.384       .  A
C250       C2586   1.490       .  S
C251        C252   1.379       .  A
C251        H254   1.081       .  S
C252        C253   1.382       .  A
C252        H255   1.082       .  S
C253       C2570   1.486       .  S
N256        C260   1.369       .  A
N256        C257   1.371       .  A
N256       C2554   1.461       .  S
C257        C258   1.382       .  A
C257       C2538   1.490       .  S
C258        C259   1.367       .  A
C258        H261   1.080       .  S
C259        C260   1.378       .  A
C259        H262   1.082       .  S
C260       C2522   1.485       .  S
N263        C267   1.362       .  A
N263        C264   1.360       .  A
N263       C2506   1.438       .  S
C264        C265   1.383       .  A
C264       C2474   1.494       .  S
C265        C266   1.381       .  A
C265        H268   1.082       .  S
C266        C267   1.382       .  A
C266        H269   1.082       .  S
C267       C2493   1.497       .  S
N270        C274   1.357       .  A
N270        C271   1.359       .  A
N270       C2458   1.441       .  S
C271        C272   1.383       .  A
C271       C2426   1.487       .  S
C272        C273   1.378       .  A
C272        H275   1.082       .  S
C273        C274   1.382       .  A
C273        H276   1.081       .  S
C274       C2442   1.485       .  S
N277        C282   1.349   1_556  A
N277        C281   1.349       .  A
N277        H309   1.043       .  S
N278        C285   1.349       .  A
N278        C286   1.346       .  A
N279        C284   1.353   1_556  A
N279        C283   1.350       .  A
N279        H310   1.035       .  S
N280        C287   1.347       .  A
N280        C288   1.346       .  A
C281        C289   1.389       .  A
C281        C297   1.419       .  A
C282        C298   1.409       .  A
C282        C290   1.385       .  A
C283        C291   1.383       .  A
C283        C300   1.412       .  A
C284        C299   1.429       .  A
C284        C292   1.393       .  A
C285        C297   1.419       .  A
C285        C293   1.390       .  A
C286        C300   1.403       .  A
C286        C294   1.381       .  A
C287        C295   1.387       .  A
C287        C298   1.406       .  A
C288        C296   1.381       .  A
C288        C299   1.402       .  A
C289        C290   1.383   1_556  A
C289        H301   1.082       .  S
C290        H302   1.081       .  S
C291        C292   1.375   1_556  A
C291        H303   1.082       .  S
C292        H304   1.081       .  S
C293        C294   1.377       .  A
C293        H305   1.081       .  S
C294        H306   1.082       .  S
C295        C296   1.378       .  A
C295        H307   1.081       .  S
C296        H308   1.082       .  S
C297       C2557   1.506       .  S
C298       C2461   1.483       .  S
C299       C2509   1.521       .  S
C300       C2605   1.483       .  S
N311        C315   1.355       .  A
N311        C312   1.360       .  A
N311       C2410   1.438       .  S
C312        C313   1.385       .  A
C312       C2394   1.494       .  S
C313        C314   1.380       .  A
C313        H316   1.081       .  S
C314        C315   1.382       .  A
C314        H317   1.081       .  S
C315       C2378   1.488       .  S
N318        C322   1.356       .  A
N318        C319   1.354       .  A
N318       C2362   1.433       .  S
C319        C320   1.384       .  A
C319       C2346   1.491       .  S
C320        C321   1.383       .  A
C320        H323   1.081       .  S
C321        C322   1.384       .  A
C321        H324   1.082       .  S
C322       C2333   1.490       .  S
N325        C329   1.355       .  A
N325        C326   1.354       .  A
N325       C2314   1.435       .  S
C326        C327   1.382       .  A
C326       C2298   1.483       .  S
C327        C328   1.382       .  A
C327        H330   1.082       .  S
C328        C329   1.383       .  A
C328        H331   1.082       .  S
C329       C2282   1.485       .  S
N332        C336   1.358       .  A
N332        C333   1.358       .  A
N332       C2266   1.439       .  S
C333        C334   1.383       .  A
C333       C2250   1.489       .  S
C334        C335   1.379       .  A
C334        H337   1.082       .  S
C335        C336   1.382       .  A
C335        H338   1.082       .  S
C336       C2237   1.484       .  S
N339        C344   1.353       .  A
N339        C343   1.350       .  A
N339        H371   1.040       .  S
N340        C347   1.348       .  A
N340        C348   1.350   1_565  A
N341        C346   1.351       .  A
N341        C345   1.353       .  A
N341        H372   1.040       .  S
N342        C349   1.350       .  A
N342        C350   1.348   1_565  A
C343        C351   1.388       .  A
C343        C359   1.412       .  A
C344        C360   1.413       .  A
C344        C352   1.387       .  A
C345        C353   1.386       .  A
C345        C362   1.413       .  A
C346        C361   1.414       .  A
C346        C354   1.388       .  A
C347        C359   1.409       .  A
C347        C355   1.387       .  A
C348        C362   1.410       .  A
C348        C356   1.386       .  A
C349        C357   1.386       .  A
C349        C360   1.410       .  A
C350        C358   1.387       .  A
C350        C361   1.410       .  A
C351        C352   1.376       .  A
C351        H363   1.083       .  S
C352        H364   1.083       .  S
C353        C354   1.377       .  A
C353        H365   1.083       .  S
C354        H366   1.083       .  S
C355        C356   1.375   1_565  A
C355        H367   1.083       .  S
C356        H368   1.083       .  S
C357        C358   1.376   1_565  A
C357        H369   1.083       .  S
C358        H370   1.083       .  S
C359       C2365   1.478       .  S
C360       C2413   1.488       .  S
C361       C2317   1.482       .  S
C362       C2269   1.488       .  S
N373        C377   1.353       .  A
N373        C374   1.355       .  A
N373       C2218   1.434       .  S
C374        C375   1.382       .  A
C374       C2189   1.486       .  S
C375        C376   1.382       .  A
C375        H378   1.082       .  S
C376        C377   1.384       .  A
C376        H379   1.081       .  S
C377       C2202   1.487       .  S
N380        C384   1.357       .  A
N380        C381   1.359       .  A
N380       C2173   1.437       .  S
C381        C382   1.386       .  A
C381       C2138   1.496       .  S
C382        C383   1.380       .  A
C382        H385   1.082       .  S
C383        C384   1.383       .  A
C383        H386   1.082       .  S
C384       C2154   1.488       .  S
N387        C391   1.353       .  A
N387        C388   1.353       .  A
N387       C2122   1.434       .  S
C388        C389   1.383       .  A
C388       C2090   1.484       .  S
C389        C390   1.382       .  A
C389        H392   1.082       .  S
C390        C391   1.384       .  A
C390        H393   1.081       .  S
C391       C2106   1.486       .  S
N394        C398   1.357       .  A
N394        C395   1.355       .  A
N394       C2074   1.434       .  S
C395        C396   1.383       .  A
C395       C2042   1.491       .  S
C396        C397   1.382       .  A
C396        H399   1.082       .  S
C397        C398   1.383       .  A
C397        H400   1.082       .  S
C398       C2058   1.491       .  S
N401        C406   1.350   1_556  A
N401        C405   1.350       .  A
N401        H433   1.040       .  S
N402        C409   1.348       .  A
N402        C410   1.347       .  A
N403        C408   1.351   1_556  A
N403        C407   1.352       .  A
N403        H434   1.039       .  S
N404        C411   1.348       .  A
N404        C412   1.348       .  A
C405        C413   1.387       .  A
C405        C421   1.411       .  A
C406        C422   1.410       .  A
C406        C414   1.387   1_554  A
C407        C415   1.388       .  A
C407        C424   1.414       .  A
C408        C423   1.413       .  A
C408        C416   1.387   1_554  A
C409        C421   1.409       .  A
C409        C417   1.386       .  A
C410        C424   1.408       .  A
C410        C418   1.387       .  A
C411        C419   1.387       .  A
C411        C422   1.409       .  A
C412        C420   1.386       .  A
C412        C423   1.408       .  A
C413        C414   1.377       .  A
C413        H425   1.083       .  S
C414        H426   1.083   1_556  S
C415        C416   1.378       .  A
C415        H427   1.083       .  S
C416        H428   1.083   1_556  S
C417        C418   1.375       .  A
C417        H429   1.083       .  S
C418        H430   1.083       .  S
C419        C420   1.374       .  A
C419        H431   1.082       .  S
C420        H432   1.083       .  S
C421       C2221   1.481       .  S
C422       C2125   1.480       .  S
C423       C2077   1.482       .  S
C424       C2170   1.482       .  S
N435        C439   1.352       .  A
N435        C436   1.352       .  A
N435       C2026   1.433       .  S
C436        C437   1.385       .  A
C436       C1994   1.485       .  S
C437        C438   1.382       .  A
C437        H440   1.081       .  S
C438        C439   1.381       .  A
C438        H441   1.082       .  S
C439       C2010   1.478       .  S
N442        C446   1.356       .  A
N442        C443   1.352       .  A
N442       C1978   1.432       .  S
C443        C444   1.382       .  A
C443       C1946   1.485       .  S
C444        C445   1.384       .  A
C444        H447   1.082       .  S
C445        C446   1.387       .  A
C445        H448   1.082       .  S
C446       C1962   1.494       .  S
N449        C453   1.353       .  A
N449        C450   1.358       .  A
N449       C1933   1.433       .  S
C450        C451   1.385       .  A
C450       C1898   1.493       .  S
C451        C452   1.381       .  A
C451        H454   1.080       .  S
C452        C453   1.382       .  A
C452        H455   1.081       .  S
C453       C1917   1.489       .  S
N456        C460   1.356       .  A
N456        C457   1.357       .  A
N456       C1882   1.437       .  S
C457        C458   1.384       .  A
C457       C1853   1.490       .  S
C458        C459   1.381       .  A
C458        H461   1.082       .  S
C459        C460   1.383       .  A
C459        H462   1.081       .  S
C460       C1866   1.490       .  S
N463        C468   1.351       .  A
N463        C467   1.350   1_556  A
N463        H495   1.039       .  S
N464        C471   1.349       .  A
N464        C472   1.349       .  A
N465        C470   1.350       .  A
N465        C469   1.351   1_556  A
N465        H496   1.039       .  S
N466        C473   1.348       .  A
N466        C474   1.347       .  A
C467        C475   1.388       .  A
C467        C483   1.411       .  A
C468        C484   1.412       .  A
C468        C476   1.387       .  A
C469        C477   1.387       .  A
C469        C486   1.410       .  A
C470        C485   1.412       .  A
C470        C478   1.388       .  A
C471        C483   1.411       .  A
C471        C479   1.388       .  A
C472        C486   1.409       .  A
C472        C480   1.386       .  A
C473        C481   1.387       .  A
C473        C484   1.408       .  A
C474        C482   1.387       .  A
C474        C485   1.407       .  A
C475        C476   1.376   1_554  A
C475        H487   1.083       .  S
C476        H488   1.083       .  S
C477        C478   1.376   1_554  A
C477        H489   1.083       .  S
C478        H490   1.083       .  S
C479        C480   1.374       .  A
C479        H491   1.083       .  S
C480        H492   1.083       .  S
C481        C482   1.373       .  A
C481        H493   1.083       .  S
C482        H494   1.082       .  S
C483       C1930   1.480       .  S
C484       C2029   1.480       .  S
C485       C1981   1.477       .  S
C486       C1885   1.481       .  S
N497        C501   1.359       .  A
N497        C498   1.355       .  A
N497       C1834   1.437       .  S
C498        C499   1.381       .  A
C498       C1818   1.483       .  S
C499        C500   1.378       .  A
C499        H502   1.082       .  S
C500        C501   1.384       .  A
C500        H503   1.082       .  S
C501       C1805   1.488       .  S
N504        C508   1.353       .  A
N504        C505   1.356       .  A
N504       C1786   1.437       .  S
C505        C506   1.384       .  A
C505       C1770   1.486       .  S
C506        C507   1.381       .  A
C506        H509   1.082       .  S
C507        C508   1.384       .  A
C507        H510   1.081       .  S
C508       C1754   1.486       .  S
N511        C515   1.352       .  A
N511        C512   1.355       .  A
N511       C1741   1.433       .  S
C512        C513   1.384       .  A
C512       C1706   1.486       .  S
C513        C514   1.383       .  A
C513        H516   1.082       .  S
C514        C515   1.384       .  A
C514        H517   1.081       .  S
C515       C1722   1.487       .  S
N518        C522   1.354       .  A
N518        C519   1.353       .  A
N518       C1690   1.436       .  S
C519        C520   1.381       .  A
C519       C1661   1.477       .  S
C520        C521   1.381       .  A
C520        H523   1.082       .  S
C521        C522   1.384       .  A
C521        H524   1.082       .  S
C522       C1674   1.484       .  S
N525        C530   1.352       .  A
N525        C529   1.354       .  A
N525        H557   1.040       .  S
N526        C533   1.348   1_455  A
N526        C534   1.347       .  A
N527        C532   1.350       .  A
N527        C531   1.351       .  A
N527        H558   1.039       .  S
N528        C535   1.349       .  A
N528        C536   1.351   1_655  A
C529        C537   1.387       .  A
C529        C545   1.418       .  A
C530        C546   1.413       .  A
C530        C538   1.387       .  A
C531        C539   1.387       .  A
C531        C548   1.411       .  A
C532        C547   1.412       .  A
C532        C540   1.388       .  A
C533        C545   1.409       .  A
C533        C541   1.387       .  A
C534        C548   1.406       .  A
C534        C542   1.386       .  A
C535        C543   1.388       .  A
C535        C546   1.413       .  A
C536        C544   1.386       .  A
C536        C547   1.412       .  A
C537        C538   1.378       .  A
C537        H549   1.082       .  S
C538        H550   1.083       .  S
C539        C540   1.376       .  A
C539        H551   1.083       .  S
C540        H552   1.083       .  S
C541        C542   1.371   1_655  A
C541        H553   1.083       .  S
C542        H554   1.083       .  S
C543        C544   1.375   1_655  A
C543        H555   1.083       .  S
C544        H556   1.082       .  S
C545       C1837   1.492       .  S
C546       C1789   1.483       .  S
C547       C1693   1.486       .  S
C548       C1738   1.477       .  S
N559        C563   1.355       .  A
N559        C560   1.357       .  A
N559       C1642   1.434       .  S
C560        C561   1.384       .  A
C560       C1626   1.491       .  S
C561        C562   1.383       .  A
C561        H564   1.082       .  S
C562        C563   1.384       .  A
C562        H565   1.082       .  S
C563       C1610   1.491       .  S
N566        C570   1.359       .  A
N566        C567   1.355       .  A
N566       C1594   1.436       .  S
C567        C568   1.382       .  A
C567       C1562   1.490       .  S
C568        C569   1.379       .  A
C568        H571   1.081       .  S
C569        C570   1.384       .  A
C569        H572   1.080       .  S
C570       C1578   1.493       .  S
N573        C577   1.359       .  A
N573        C574   1.361       .  A
N573       C1546   1.435       .  S
C574        C575   1.384       .  A
C574       C1514   1.500       .  S
C575        C576   1.380       .  A
C575        H578   1.081       .  S
C576        C577   1.385       .  A
C576        H579   1.080       .  S
C577       C1533   1.501       .  S
N580        C584   1.355       .  A
N580        C581   1.357       .  A
N580       C1501   1.439       .  S
C581        C582   1.384       .  A
C581       C1466   1.484       .  S
C582        C583   1.379       .  A
C582        H585   1.082       .  S
C583        C584   1.381       .  A
C583        H586   1.082       .  S
C584       C1482   1.481       .  S
N587        C592   1.352       .  A
N587        C591   1.352   1_556  A
N587        H619   1.041       .  S
N588        C595   1.348       .  A
N588        C596   1.349       .  A
N589        C594   1.350       .  A
N589        C593   1.352   1_556  A
N589        H620   1.041       .  S
N590        C597   1.349       .  A
N590        C598   1.349       .  A
C591        C599   1.387       .  A
C591        C607   1.411       .  A
C592        C608   1.413       .  A
C592        C600   1.388       .  A
C593        C601   1.386       .  A
C593        C610   1.411       .  A
C594        C609   1.412       .  A
C594        C602   1.388       .  A
C595        C607   1.407       .  A
C595        C603   1.386       .  A
C596        C610   1.410       .  A
C596        C604   1.387       .  A
C597        C605   1.386       .  A
C597        C608   1.410       .  A
C598        C606   1.387       .  A
C598        C609   1.411       .  A
C599        C600   1.375   1_554  A
C599        H611   1.083       .  S
C600        H612   1.083       .  S
C601        C602   1.377   1_554  A
C601        H613   1.083       .  S
C602        H614   1.083       .  S
C603        C604   1.372       .  A
C603        H615   1.082       .  S
C604        H616   1.082       .  S
C605        C606   1.375       .  A
C605        H617   1.083       .  S
C606        H618   1.083       .  S
C607       C1498   1.479       .  S
C608       C1597   1.486       .  S
C609       C1645   1.483       .  S
C610       C1549   1.486       .  S
N621        C625   1.368       .  A
N621        C622   1.367       .  A
N621       C1450   1.453       .  S
C622        C623   1.380       .  A
C622       C1434   1.489       .  S
C623        C624   1.371       .  A
C623        H626   1.081       .  S
C624        C625   1.384       .  A
C624        H627   1.082       .  S
C625       C1418   1.495       .  S
N628        C632   1.358       .  A
N628        C629   1.358       .  A
N628       C1402   1.436       .  S
C629        C630   1.385       .  A
C629       C1386   1.495       .  S
C630        C631   1.381       .  A
C630        H633   1.081       .  S
C631        C632   1.381       .  A
C631        H634   1.082       .  S
C632       C1373   1.489       .  S
N635        C639   1.365       .  A
N635        C636   1.366       .  A
N635       C1357   1.453       .  S
C636        C637   1.383       .  A
C636       C1322   1.492       .  S
C637        C638   1.372       .  A
C637        H640   1.082       .  S
C638        C639   1.380       .  A
C638        H641   1.082       .  S
C639       C1341   1.487       .  S
N642        C646   1.361       .  A
N642        C643   1.358       .  A
N642       C1306   1.438       .  S
C643        C644   1.382       .  A
C643       C1277   1.491       .  S
C644        C645   1.377       .  A
C644        H647   1.081       .  S
C645        C646   1.384       .  A
C645        H648   1.082       .  S
C646       C1290   1.491       .  S
N649        C654   1.348       .  A
N649        C653   1.350       .  A
N649        H681   1.044       .  S
N650        C657   1.347   1_455  A
N650        C658   1.347       .  A
N651        C656   1.349       .  A
N651        C655   1.351       .  A
N651        H682   1.043       .  S
N652        C659   1.347       .  A
N652        C660   1.346   1_655  A
C653        C661   1.390       .  A
C653        C669   1.419       .  A
C654        C670   1.402       .  A
C654        C662   1.382       .  A
C655        C663   1.389       .  A
C655        C672   1.418       .  A
C656        C671   1.405       .  A
C656        C664   1.383       .  A
C657        C669   1.412       .  A
C657        C665   1.386       .  A
C658        C672   1.414       .  A
C658        C666   1.388       .  A
C659        C667   1.386       .  A
C659        C670   1.404       .  A
C660        C668   1.387       .  A
C660        C671   1.407       .  A
C661        C662   1.380       .  A
C661        H673   1.082       .  S
C662        H674   1.082       .  S
C663        C664   1.378       .  A
C663        H675   1.082       .  S
C664        H676   1.081       .  S
C665        C666   1.382   1_655  A
C665        H677   1.082       .  S
C666        H678   1.082       .  S
C667        C668   1.377   1_655  A
C667        H679   1.083       .  S
C668        H680   1.082       .  S
C669       C1453   1.505       .  S
C670       C1405   1.481       .  S
C671       C1309   1.477       .  S
C672       C1354   1.502       .  S
N683        C687   1.359       .  A
N683        C684   1.358       .  A
N683       C1258   1.442       .  S
C684        C685   1.383       .  A
C684       C1229   1.489       .  S
C685        C686   1.380       .  A
C685        H688   1.081       .  S
C686        C687   1.382       .  A
C686        H689   1.082       .  S
C687       C1242   1.487       .  S
N690        C694   1.360       .  A
N690        C691   1.359       .  A
N690       C1210   1.437       .  S
C691        C692   1.382       .  A
C691       C1178   1.494       .  S
C692        C693   1.382       .  A
C692        H695   1.082       .  S
C693        C694   1.385       .  A
C693        H696   1.082       .  S
C694       C1194   1.494       .  S
N697        C701   1.367       .  A
N697        C698   1.369       .  A
N697       C1165   1.455       .  S
C698        C699   1.383       .  A
C698       C1146   1.492       .  S
C699        C700   1.369       .  A
C699        H702   1.082       .  S
C700        C701   1.380       .  A
C700        H703   1.082       .  S
C701       C1133   1.485       .  S
N704        C708   1.353       .  A
N704        C705   1.352       .  A
N704       C1114   1.436       .  S
C705        C706   1.383       .  A
C705       C1098   1.481       .  S
C706        C707   1.381       .  A
C706        H709   1.081       .  S
C707        C708   1.382       .  A
C707        H710   1.082       .  S
C708       C1085   1.480       .  S
N711        C716   1.352       .  A
N711        C715   1.349       .  A
N711        H743   1.039       .  S
N712        C719   1.350   1_455  A
N712        C720   1.350       .  A
N713        C718   1.352       .  A
N713        C717   1.346       .  A
N713        H744   1.042       .  S
N714        C721   1.346   1_455  A
N714        C722   1.349       .  A
C715        C723   1.387       .  A
C715        C731   1.410       .  A
C716        C732   1.413       .  A
C716        C724   1.388       .  A
C717        C725   1.384       .  A
C717        C734   1.403       .  A
C718        C733   1.417       .  A
C718        C726   1.389       .  A
C719        C731   1.410       .  A
C719        C727   1.387       .  A
C720        C734   1.409       .  A
C720        C728   1.386       .  A
C721        C729   1.384       .  A
C721        C732   1.406       .  A
C722        C730   1.387       .  A
C722        C733   1.416       .  A
C723        C724   1.376       .  A
C723        H735   1.082       .  S
C724        H736   1.083       .  S
C725        C726   1.378       .  A
C725        H737   1.081       .  S
C726        H738   1.082       .  S
C727        C728   1.371   1_655  A
C727        H739   1.083       .  S
C728        H740   1.082       .  S
C729        C730   1.376   1_655  A
C729        H741   1.082       .  S
C730        H742   1.082       .  S
C731       C1213   1.475       .  S
C732       C1261   1.483       .  S
C733       C1162   1.505       .  S
C734       C1117   1.481       .  S
O745       Ni753   1.913       .  S
O745        C755   1.279       .  A
O746       Ni753   1.919   1_655  S
O746        C756   1.280       .  A
O747       Ni753   1.908   1_655  S
O747        C757   1.277       .  A
O748       Ni753   1.907       .  S
O748        C758   1.276       .  A
O749       Ni754   1.934       .  S
O749        C758   1.286       .  A
O750       Ni754   1.940   1_655  S
O750        C757   1.286       .  A
O751       Ni754   1.934   1_655  S
O751        C756   1.284       .  A
O752       Ni754   1.937       .  S
O752        C755   1.285       .  A
Ni753      Ni754   2.376       .  S
C755       C1325   1.503       .  S
C756       C1226   1.491       .  S
C757       C1421   1.500       .  S
C758       C1130   1.500       .  S
O759       Ni767   1.923       .  S
O759        C769   1.283       .  A
O760       Ni767   1.925       .  S
O760        C770   1.283       .  A
O761       Ni767   1.927       .  S
O761        C771   1.282       .  A
O762       Ni767   1.926       .  S
O762        C772   1.285       .  A
O763       Ni768   1.926       .  S
O763        C772   1.281       .  A
O764       Ni768   1.926       .  S
O764        C771   1.282       .  A
O765       Ni768   1.917       .  S
O765        C770   1.280       .  A
O766       Ni768   1.921       .  S
O766        C769   1.281       .  A
Ni767      Ni768   2.380       .  S
C769       C1245   1.491       .  S
C770       C3213   1.496       .  S
C771       C1197   1.485       .  S
C772       C3261   1.508       .  S
O773       Ni781   1.913       .  S
O773        C783   1.281       .  A
O774       Ni781   1.911       .  S
O774        C784   1.278       .  A
O775       Ni781   1.913       .  S
O775        C785   1.282       .  A
O776       Ni781   1.909       .  S
O776        C786   1.278       .  A
O777       Ni782   1.936       .  S
O777        C786   1.285       .  A
O778       Ni782   1.932       .  S
O778        C785   1.283       .  A
O779       Ni782   1.920       .  S
O779        C784   1.282       .  A
O780       Ni782   1.918       .  S
O780        C783   1.280       .  A
Ni781      Ni782   2.378       .  S
C783       C2874   1.492       .  S
C784       C1101   1.483       .  S
C785       C2829   1.504       .  S
C786       C1149   1.500       .  S
O787       Ni795   1.936       .  S
O787        C797   1.284       .  A
O788       Ni795   1.932       .  S
O788        C798   1.286       .  A
O789       Ni795   1.911       .  S
O789        C799   1.281       .  A
O790       Ni795   1.916       .  S
O790        C800   1.281       .  A
O791       Ni796   1.931       .  S
O791        C800   1.282       .  A
O792       Ni796   1.930       .  S
O792        C799   1.282       .  A
O793       Ni796   1.927       .  S
O793        C798   1.281       .  A
O794       Ni796   1.927       .  S
O794        C797   1.283       .  A
Ni795      Ni796   2.378       .  S
C797       C1389   1.497       .  S
C798       C1530   1.513       .  S
C799       C1437   1.497       .  S
C800       C1485   1.492       .  S
O801       Ni809   1.917       .  S
O801        C811   1.283       .  A
O802       Ni809   1.922       .  S
O802        C812   1.281       .  A
O803       Ni809   1.921       .  S
O803        C813   1.281       .  A
O804       Ni809   1.913       .  S
O804        C814   1.282       .  A
O805       Ni810   1.927       .  S
O805        C814   1.282       .  A
O806       Ni810   1.929       .  S
O806        C813   1.283       .  A
O807       Ni810   1.927       .  S
O807        C812   1.282       .  A
O808       Ni810   1.927       .  S
O808        C811   1.281       .  A
Ni809      Ni810   2.380       .  S
C811       C1338   1.501       .  S
C812       C1869   1.488       .  S
C813       C1293   1.486       .  S
C814       C1914   1.502       .  S
O815       Ni823   1.932       .  S
O815        C825   1.283       .  A
O816       Ni823   1.933   1_554  S
O816        C826   1.284       .  A
O817       Ni823   1.922   1_554  S
O817        C827   1.280       .  A
O818       Ni823   1.927       .  S
O818        C828   1.281       .  A
O819       Ni824   1.923       .  S
O819        C828   1.284       .  A
O820       Ni824   1.924   1_554  S
O820        C827   1.284       .  A
O821       Ni824   1.919   1_554  S
O821        C826   1.280       .  A
O822       Ni824   1.919       .  S
O822        C825   1.282       .  A
Ni823      Ni824   2.376       .  S
C825       C1613   1.507       .  S
C826       C2045   1.491       .  S
C827       C1517   1.504       .  S
C828       C2141   1.504       .  S
O829       Ni837   1.919       .  S
O829        C839   1.280       .  A
O830       Ni837   1.919       .  S
O830        C840   1.279       .  A
O831       Ni837   1.923       .  S
O831        C841   1.284       .  A
O832       Ni837   1.922       .  S
O832        C842   1.280       .  A
O833       Ni838   1.918       .  S
O833        C842   1.283       .  A
O834       Ni838   1.916       .  S
O834        C841   1.278       .  A
O835       Ni838   1.927       .  S
O835        C840   1.285       .  A
O836       Ni838   1.927       .  S
O836        C839   1.282       .  A
Ni837      Ni838   2.377       .  S
C839       C1773   1.481       .  S
C840       C1629   1.507       .  S
C841       C1821   1.498       .  S
C842       C1581   1.503       .  S
O843       Ni851   1.923       .  S
O843        C853   1.282       .  A
O844       Ni851   1.924   1_655  S
O844        C854   1.281       .  A
O845       Ni851   1.928   1_655  S
O845        C855   1.282       .  A
O846       Ni851   1.929       .  S
O846        C856   1.283       .  A
O847       Ni852   1.916       .  S
O847        C856   1.280       .  A
O848       Ni852   1.911   1_655  S
O848        C855   1.281       .  A
O849       Ni852   1.930   1_655  S
O849        C854   1.284       .  A
O850       Ni852   1.929       .  S
O850        C853   1.283       .  A
Ni851      Ni852   2.382       .  S
C853       C1709   1.490       .  S
C854       C1181   1.497       .  S
C855       C1802   1.499       .  S
C856       C1082   1.482       .  S
O857       Ni865   1.923       .  S
O857        C867   1.284       .  A
O858       Ni865   1.923       .  S
O858        C868   1.284       .  A
O859       Ni865   1.915       .  S
O859        C869   1.279       .  A
O860       Ni865   1.916       .  S
O860        C870   1.280       .  A
O861       Ni866   1.929       .  S
O861        C870   1.283       .  A
O862       Ni866   1.930       .  S
O862        C869   1.283       .  A
O863       Ni866   1.917       .  S
O863        C868   1.279       .  A
O864       Ni866   1.916       .  S
O864        C867   1.279       .  A
Ni865      Ni866   2.384       .  S
C867       C2013   1.490       .  S
C868       C1677   1.498       .  S
C869       C1965   1.476       .  S
C870       C1725   1.480       .  S
O871       Ni879   1.923       .  S
O871        C881   1.282       .  A
O872       Ni879   1.925   1_554  S
O872        C882   1.281       .  A
O873       Ni879   1.916   1_554  S
O873        C883   1.279       .  A
O874       Ni879   1.915       .  S
O874        C884   1.280       .  A
O875       Ni880   1.916       .  S
O875        C884   1.280       .  A
O876       Ni880   1.919   1_554  S
O876        C883   1.283       .  A
O877       Ni880   1.916   1_554  S
O877        C882   1.282       .  A
O878       Ni880   1.916       .  S
O878        C881   1.280       .  A
Ni879      Ni880   2.380       .  S
C881       C2186   1.488       .  S
C882       C1901   1.501       .  S
C883       C2093   1.501       .  S
C884       C1997   1.474       .  S
O885       Ni893   1.924       .  S
O885        C895   1.281       .  A
O886       Ni893   1.923       .  S
O886        C896   1.281       .  A
O887       Ni893   1.918       .  S
O887        C897   1.280       .  A
O888       Ni893   1.922       .  S
O888        C898   1.284       .  A
O889       Ni894   1.927       .  S
O889        C898   1.281       .  A
O890       Ni894   1.926       .  S
O890        C897   1.282       .  A
O891       Ni894   1.921       .  S
O891        C896   1.281       .  A
O892       Ni894   1.918       .  S
O892        C895   1.283       .  A
Ni893      Ni894   2.381       .  S
C895       C2205   1.502       .  S
C896       C2253   1.483       .  S
C897       C2157   1.479       .  S
C898       C2301   1.505       .  S
O899       Ni907   1.924       .  S
O899        C909   1.282       .  A
O900       Ni907   1.926       .  S
O900        C910   1.281       .  A
O901       Ni907   1.918       .  S
O901        C911   1.279       .  A
O902       Ni907   1.915       .  S
O902        C912   1.279       .  A
O903       Ni908   1.923       .  S
O903        C912   1.283       .  A
O904       Ni908   1.917       .  S
O904        C911   1.283       .  A
O905       Ni908   1.924       .  S
O905        C910   1.283       .  A
O906       Ni908   1.920       .  S
O906        C909   1.280       .  A
Ni907      Ni908   2.378       .  S
C909       C2682   1.481       .  S
C910       C2061   1.500       .  S
C911       C2634   1.500       .  S
C912       C2109   1.502       .  S
O913       Ni921   1.925   1_545  S
O913        C923   1.283       .  A
O914       Ni921   1.923       .  S
O914        C924   1.282       .  A
O915       Ni921   1.929       .  S
O915        C925   1.285       .  A
O916       Ni921   1.927   1_545  S
O916        C926   1.281       .  A
O917       Ni922   1.916   1_545  S
O917        C926   1.283       .  A
O918       Ni922   1.915       .  S
O918        C925   1.279       .  A
O919       Ni922   1.922       .  S
O919        C924   1.281       .  A
O920       Ni922   1.918   1_545  S
O920        C923   1.280       .  A
Ni921      Ni922   2.379       .  S
C923       C2285   1.494       .  S
C924       C2909   1.484       .  S
C925       C2381   1.501       .  S
C926       C2813   1.500       .  S
O927       Ni935   1.922       .  S
O927        C937   1.280       .  A
O928       Ni935   1.920       .  S
O928        C938   1.280       .  A
O929       Ni935   1.928       .  S
O929        C939   1.284       .  A
O930       Ni935   1.929       .  S
O930        C940   1.283       .  A
O931       Ni936   1.917       .  S
O931        C940   1.280       .  A
O932       Ni936   1.918       .  S
O932        C939   1.279       .  A
O933       Ni936   1.922       .  S
O933        C938   1.283       .  A
O934       Ni936   1.919       .  S
O934        C937   1.284       .  A
Ni935      Ni936   2.381       .  S
C937       C2541   1.498       .  S
C938       C2397   1.501       .  S
C939       C2589   1.488       .  S
C940       C2349   1.483       .  S
O941       Ni949   1.929       .  S
O941        C951   1.283       .  A
O942       Ni949   1.930   1_554  S
O942        C952   1.283       .  A
O943       Ni949   1.915   1_554  S
O943        C953   1.279       .  A
O944       Ni949   1.915       .  S
O944        C954   1.278       .  A
O945       Ni950   1.939       .  S
O945        C954   1.288       .  A
O946       Ni950   1.940   1_554  S
O946        C953   1.287       .  A
O947       Ni950   1.922   1_554  S
O947        C952   1.281       .  A
O948       Ni950   1.919       .  S
O948        C951   1.279       .  A
Ni949      Ni950   2.381       .  S
C951       C2573   1.479       .  S
C952       C1850   1.486       .  S
C953       C2477   1.507       .  S
C954       C1949   1.505       .  S
O955       Ni963   1.935       .  S
O955        C965   1.286       .  A
O956       Ni963   1.938       .  S
O956        C966   1.287       .  A
O957       Ni963   1.914       .  S
O957        C967   1.280       .  A
O958       Ni963   1.918       .  S
O958        C968   1.281       .  A
O959       Ni964   1.924       .  S
O959        C968   1.281       .  A
O960       Ni964   1.921       .  S
O960        C967   1.280       .  A
O961       Ni964   1.920       .  S
O961        C966   1.280       .  A
O962       Ni964   1.918       .  S
O962        C965   1.279       .  A
Ni963      Ni964   2.380       .  S
C965       C2733   1.506       .  S
C966       C2490   1.510       .  S
C967       C2781   1.473       .  S
C968       C2445   1.484       .  S
O969       Ni977   1.922   1_545  S
O969        C979   1.280       .  A
O970       Ni977   1.923       .  S
O970        C980   1.281       .  A
O971       Ni977   1.922       .  S
O971        C981   1.281       .  A
O972       Ni977   1.922   1_545  S
O972        C982   1.281       .  A
O973       Ni978   1.912   1_545  S
O973        C982   1.282       .  A
O974       Ni978   1.915       .  S
O974        C981   1.282       .  A
O975       Ni978   1.923       .  S
O975        C980   1.281       .  A
O976       Ni978   1.924   1_545  S
O976        C979   1.283       .  A
Ni977      Ni978   2.381       .  S
C979       C2669   1.493       .  S
C980       C2957   1.479       .  S
C981       C2762   1.495       .  S
C982       C2861   1.500       .  S
O983       Ni991   1.920       .  S
O983        C993   1.283       .  A
O984       Ni991   1.914       .  S
O984        C994   1.283       .  A
O985       Ni991   1.921       .  S
O985        C995   1.281       .  A
O986       Ni991   1.922       .  S
O986        C996   1.281       .  A
O987       Ni992   1.928       .  S
O987        C996   1.282       .  A
O988       Ni992   1.926       .  S
O988        C995   1.282       .  A
O989       Ni992   1.924       .  S
O989        C994   1.280       .  A
O990       Ni992   1.925       .  S
O990        C993   1.281       .  A
Ni991      Ni992   2.381       .  S
C993       C2973   1.501       .  S
C994       C3021   1.495       .  S
C995       C2925   1.483       .  S
C996       C3069   1.489       .  S
O997      Ni1005   1.914       .  S
O997       C1007   1.278       .  A
O998      Ni1005   1.918   1_455  S
O998       C1008   1.280       .  A
O999      Ni1005   1.926   1_455  S
O999       C1009   1.282       .  A
O1000     Ni1005   1.929       .  S
O1000      C1010   1.283       .  A
O1001     Ni1006   1.921       .  S
O1001      C1010   1.281       .  A
O1002     Ni1006   1.921   1_455  S
O1002      C1009   1.281       .  A
O1003     Ni1006   1.927   1_455  S
O1003      C1008   1.283       .  A
O1004     Ni1006   1.924       .  S
O1004      C1007   1.284       .  A
Ni1005    Ni1006   2.384       .  S
C1007      C3149   1.501       .  S
C1008      C1274   1.479       .  S
C1009      C3053   1.480       .  S
C1010      C1370   1.488       .  S
O1011     Ni1019   1.926       .  S
O1011      C1021   1.282       .  A
O1012     Ni1019   1.927       .  S
O1012      C1022   1.282       .  A
O1013     Ni1019   1.918       .  S
O1013      C1023   1.280       .  A
O1014     Ni1019   1.919       .  S
O1014      C1024   1.281       .  A
O1015     Ni1020   1.929       .  S
O1015      C1024   1.283       .  A
O1016     Ni1020   1.926       .  S
O1016      C1023   1.282       .  A
O1017     Ni1020   1.912       .  S
O1017      C1022   1.282       .  A
O1018     Ni1020   1.909       .  S
O1018      C1021   1.281       .  A
Ni1019    Ni1020   2.381       .  S
C1021      C3165   1.500       .  S
C1022      C3309   1.497       .  S
C1023      C3117   1.478       .  S
C1024      C3357   1.491       .  S
O1025     Ni1033   1.923       .  S
O1025      C1035   1.283       .  A
O1026     Ni1033   1.921   1_545  S
O1026      C1036   1.281       .  A
O1027     Ni1033   1.919   1_545  S
O1027      C1037   1.283       .  A
O1028     Ni1033   1.918       .  S
O1028      C1038   1.279       .  A
O1029     Ni1034   1.934       .  S
O1029      C1038   1.286       .  A
O1030     Ni1034   1.930   1_545  S
O1030      C1037   1.282       .  A
O1031     Ni1034   1.922   1_545  S
O1031      C1036   1.281       .  A
O1032     Ni1034   1.919       .  S
O1032      C1035   1.280       .  A
Ni1033    Ni1034   2.378       .  S
C1035      C3341   1.495       .  S
C1036      C2618   1.482       .  S
C1037      C3242   1.504       .  S
C1038      C2714   1.507       .  S
O1039     Ni1047   1.922       .  S
O1039      C1049   1.281       .  A
O1040     Ni1047   1.923   1_455  S
O1040      C1050   1.280       .  A
O1041     Ni1047   1.913   1_455  S
O1041      C1051   1.282       .  A
O1042     Ni1047   1.918       .  S
O1042      C1052   1.280       .  A
O1043     Ni1048   1.920   1_655  S
O1043      C1052   1.281       .  A
O1044     Ni1048   1.923       .  S
O1044      C1051   1.280       .  A
O1045     Ni1048   1.918       .  S
O1045      C1050   1.283       .  A
O1046     Ni1048   1.917   1_655  S
O1046      C1049   1.280       .  A
Ni1047    Ni1048   2.382   1_655  S
C1049      C3098   1.477       .  S
C1050      C1658   1.499       .  S
C1051      C3005   1.501       .  S
C1052      C1757   1.478       .  S
O1053     Ni1061   1.924       .  S
O1053      C1063   1.282       .  A
O1054     Ni1061   1.920   1_545  S
O1054      C1064   1.283       .  A
O1055     Ni1061   1.923   1_545  S
O1055      C1065   1.280       .  A
O1056     Ni1061   1.922       .  S
O1056      C1066   1.281       .  A
O1057     Ni1062   1.916       .  S
O1057      C1066   1.280       .  A
O1058     Ni1062   1.919   1_545  S
O1058      C1065   1.284       .  A
O1059     Ni1062   1.923   1_545  S
O1059      C1064   1.281       .  A
O1060     Ni1062   1.924       .  S
O1060      C1063   1.282       .  A
Ni1061    Ni1062   2.384       .  S
C1063      C2330   1.484       .  S
C1064      C3194   1.496       .  S
C1065      C2234   1.500       .  S
C1066      C3293   1.472       .  S
O1067     Ni1075   1.920       .  S
O1067      C1077   1.282       .  A
O1068     Ni1075   1.923   1_554  S
O1068      C1078   1.282       .  A
O1069     Ni1075   1.927   1_554  S
O1069      C1079   1.282       .  A
O1070     Ni1075   1.925       .  S
O1070      C1080   1.281       .  A
O1071     Ni1076   1.917   1_556  S
O1071      C1080   1.282       .  A
O1072     Ni1076   1.925       .  S
O1072      C1079   1.281       .  A
O1073     Ni1076   1.920       .  S
O1073      C1078   1.281       .  A
O1074     Ni1076   1.918   1_556  S
O1074      C1077   1.280       .  A
Ni1075    Ni1076   2.382   1_556  S
C1077      C2525   1.492       .  S
C1078      C1469   1.484       .  S
C1079      C2429   1.484       .  S
C1080      C1565   1.500       .  S
C1081      C1082   1.402       .  A
C1081      C1086   1.407       .  A
C1081      H1088   1.085       .  S
C1082      C1083   1.416       .  A
C1083      C1084   1.406       .  A
C1083      C1090   1.512       .  S
C1084      C1085   1.400       .  A
C1084      H1089   1.083       .  S
C1085      C1086   1.420       .  A
C1086      C1087   1.518       .  S
C1087      F1091   1.383       .  S
C1087      F1092   1.379       .  S
C1087      F1093   1.383       .  S
C1090      F1094   1.381       .  S
C1090      F1095   1.382       .  S
C1090      F1096   1.384       .  S
C1097      C1098   1.401       .  A
C1097      C1102   1.408       .  A
C1097      H1104   1.083       .  S
C1098      C1099   1.416       .  A
C1099      C1100   1.405       .  A
C1099      C1106   1.520       .  S
C1100      C1101   1.404       .  A
C1100      H1105   1.083       .  S
C1101      C1102   1.421       .  A
C1102      C1103   1.520       .  S
C1103      F1107   1.385       .  S
C1103      F1108   1.384       .  S
C1103      F1109   1.383       .  S
C1106      F1110   1.381       .  S
C1106      F1111   1.381       .  S
C1106      F1112   1.385       .  S
C1113      C1114   1.398       .  A
C1113      C1118   1.400       .  A
C1113      H1120   1.080       .  S
C1114      C1115   1.415       .  A
C1115      C1116   1.404       .  A
C1115      C1122   1.515       .  S
C1116      C1117   1.402       .  A
C1116      H1121   1.084       .  S
C1117      C1118   1.418       .  A
C1118      C1119   1.522       .  S
C1119      F1123   1.385       .  S
C1119      F1124   1.383       .  S
C1119      F1125   1.380       .  S
C1122      F1126   1.384       .  S
C1122      F1127   1.382       .  S
C1122      F1128   1.382       .  S
C1129      C1130   1.411       .  A
C1129      C1134   1.408       .  A
C1129      H1136   1.084       .  S
C1130      C1131   1.430       .  A
C1131      C1132   1.405       .  A
C1131      C1138   1.524       .  S
C1132      C1133   1.400       .  A
C1132      H1137   1.083       .  S
C1133      C1134   1.415       .  A
C1134      C1135   1.517       .  S
C1135      F1139   1.384       .  S
C1135      F1140   1.381       .  S
C1135      F1141   1.383       .  S
C1138      F1142   1.382       .  S
C1138      F1143   1.379       .  S
C1138      F1144   1.385       .  S
C1145      C1146   1.402       .  A
C1145      C1150   1.404       .  A
C1145      H1152   1.083       .  S
C1146      C1147   1.419       .  A
C1147      C1148   1.414       .  A
C1147      C1154   1.518       .  S
C1148      C1149   1.412       .  A
C1148      H1153   1.084       .  S
C1149      C1150   1.427       .  A
C1150      C1151   1.524       .  S
C1151      F1155   1.385       .  S
C1151      F1156   1.384       .  S
C1151      F1157   1.383       .  S
C1154      F1158   1.381       .  S
C1154      F1159   1.382       .  S
C1154      F1160   1.384       .  S
C1161      C1162   1.410       .  A
C1161      C1166   1.404       .  A
C1161      H1168   1.082       .  S
C1162      C1163   1.419       .  A
C1163      C1164   1.400       .  A
C1163      C1170   1.521       .  S
C1164      C1165   1.410       .  A
C1164      H1169   1.077       .  S
C1165      C1166   1.419       .  A
C1166      C1167   1.515       .  S
C1167      F1171   1.384       .  S
C1167      F1172   1.381       .  S
C1167      F1173   1.382       .  S
C1170      F1174   1.382       .  S
C1170      F1175   1.383       .  S
C1170      F1176   1.382       .  S
C1177      C1178   1.402       .  A
C1177      C1182   1.412       .  A
C1177      H1184   1.083       .  S
C1178      C1179   1.415       .  A
C1179      C1180   1.411       .  A
C1179      C1186   1.515       .  S
C1180      C1181   1.407       .  A
C1180      H1185   1.083       .  S
C1181      C1182   1.425       .  A
C1182      C1183   1.520       .  S
C1183      F1187   1.385       .  S
C1183      F1188   1.383       .  S
C1183      F1189   1.384       .  S
C1186      F1190   1.384       .  S
C1186      F1191   1.378       .  S
C1186      F1192   1.383       .  S
C1193      C1194   1.408       .  A
C1193      C1198   1.413       .  A
C1193      H1200   1.082       .  S
C1194      C1195   1.425       .  A
C1195      C1196   1.407       .  A
C1195      C1202   1.521       .  S
C1196      C1197   1.401       .  A
C1196      H1201   1.085       .  S
C1197      C1198   1.415       .  A
C1198      C1199   1.517       .  S
C1199      F1203   1.385       .  S
C1199      F1204   1.382       .  S
C1199      F1205   1.383       .  S
C1202      F1206   1.379       .  S
C1202      F1207   1.384       .  S
C1202      F1208   1.383       .  S
C1209      C1210   1.402       .  A
C1209      C1214   1.398       .  A
C1209      H1216   1.082       .  S
C1210      C1211   1.419       .  A
C1211      C1212   1.401       .  A
C1211      C1218   1.516       .  S
C1212      C1213   1.401       .  A
C1212      H1217   1.085       .  S
C1213      C1214   1.414       .  A
C1214      C1215   1.519       .  S
C1215      F1219   1.384       .  S
C1215      F1220   1.383       .  S
C1215      F1221   1.381       .  S
C1218      F1222   1.378       .  S
C1218      F1223   1.384       .  S
C1218      F1224   1.383       .  S
C1225      C1226   1.404       .  A
C1225      C1230   1.411       .  A
C1225      H1232   1.083       .  S
C1226      C1227   1.421       .  A
C1227      C1228   1.409       .  A
C1227      C1234   1.515       .  S
C1228      C1229   1.400       .  A
C1228      H1233   1.083       .  S
C1229      C1230   1.420       .  A
C1230      C1231   1.520       .  S
C1231      F1235   1.385       .  S
C1231      F1236   1.382       .  S
C1231      F1237   1.381       .  S
C1234      F1238   1.383       .  S
C1234      F1239   1.382       .  S
C1234      F1240   1.385       .  S
C1241      C1242   1.401       .  A
C1241      C1246   1.410       .  A
C1241      H1248   1.082       .  S
C1242      C1243   1.415       .  A
C1243      C1244   1.409       .  A
C1243      C1250   1.518       .  S
C1244      C1245   1.406       .  A
C1244      H1249   1.083       .  S
C1245      C1246   1.423       .  A
C1246      C1247   1.520       .  S
C1247      F1251   1.385       .  S
C1247      F1252   1.383       .  S
C1247      F1253   1.383       .  S
C1250      F1254   1.383       .  S
C1250      F1255   1.378       .  S
C1250      F1256   1.384       .  S
C1257      C1258   1.400       .  A
C1257      C1262   1.401       .  A
C1257      H1264   1.079       .  S
C1258      C1259   1.419       .  A
C1259      C1260   1.404       .  A
C1259      C1266   1.515       .  S
C1260      C1261   1.400       .  A
C1260      H1265   1.085       .  S
C1261      C1262   1.416       .  A
C1262      C1263   1.520       .  S
C1263      F1267   1.385       .  S
C1263      F1268   1.382       .  S
C1263      F1269   1.381       .  S
C1266      F1270   1.381       .  S
C1266      F1271   1.383       .  S
C1266      F1272   1.384       .  S
C1273      C1274   1.401       .  A
C1273      C1278   1.408       .  A
C1273      H1280   1.083       .  S
C1274      C1275   1.414       .  A
C1275      C1276   1.411       .  A
C1275      C1282   1.517       .  S
C1276      C1277   1.406       .  A
C1276      H1281   1.083       .  S
C1277      C1278   1.420       .  A
C1278      C1279   1.520       .  S
C1279      F1283   1.385       .  S
C1279      F1284   1.381       .  S
C1279      F1285   1.383       .  S
C1282      F1286   1.382       .  S
C1282      F1287   1.384       .  S
C1282      F1288   1.384       .  S
C1289      C1290   1.406       .  A
C1289      C1294   1.406       .  A
C1289      H1296   1.083       .  S
C1290      C1291   1.421       .  A
C1291      C1292   1.412       .  A
C1291      C1298   1.518       .  S
C1292      C1293   1.405       .  A
C1292      H1297   1.085       .  S
C1293      C1294   1.415       .  A
C1294      C1295   1.516       .  S
C1295      F1299   1.384       .  S
C1295      F1300   1.382       .  S
C1295      F1301   1.382       .  S
C1298      F1302   1.383       .  S
C1298      F1303   1.380       .  S
C1298      F1304   1.384       .  S
C1305      C1306   1.404       .  A
C1305      C1310   1.403       .  A
C1305      H1312   1.083       .  S
C1306      C1307   1.415       .  A
C1307      C1308   1.400       .  A
C1307      C1314   1.517       .  S
C1308      C1309   1.403       .  A
C1308      H1313   1.085       .  S
C1309      C1310   1.415       .  A
C1310      C1311   1.517       .  S
C1311      F1315   1.383       .  S
C1311      F1316   1.383       .  S
C1311      F1317   1.381       .  S
C1314      F1318   1.381       .  S
C1314      F1319   1.385       .  S
C1314      F1320   1.382       .  S
C1321      C1322   1.401       .  A
C1321      C1326   1.405       .  A
C1321      H1328   1.083       .  S
C1322      C1323   1.418       .  A
C1323      C1324   1.414       .  A
C1323      C1330   1.518       .  S
C1324      C1325   1.412       .  A
C1324      H1329   1.084       .  S
C1325      C1326   1.429       .  A
C1326      C1327   1.522       .  S
C1327      F1331   1.385       .  S
C1327      F1332   1.383       .  S
C1327      F1333   1.382       .  S
C1330      F1334   1.382       .  S
C1330      F1335   1.382       .  S
C1330      F1336   1.384       .  S
C1337      C1338   1.408       .  A
C1337      C1342   1.404       .  A
C1337      H1344   1.082       .  S
C1338      C1339   1.428       .  A
C1339      C1340   1.414       .  A
C1339      C1346   1.518       .  S
C1340      C1341   1.401       .  A
C1340      H1345   1.083       .  S
C1341      C1342   1.417       .  A
C1342      C1343   1.522       .  S
C1343      F1347   1.385       .  S
C1343      F1348   1.381       .  S
C1343      F1349   1.383       .  S
C1346      F1350   1.382       .  S
C1346      F1351   1.383       .  S
C1346      F1352   1.385       .  S
C1353      C1354   1.407       .  A
C1353      C1358   1.403       .  A
C1353      H1360   1.082       .  S
C1354      C1355   1.420       .  A
C1355      C1356   1.400       .  A
C1355      C1362   1.519       .  S
C1356      C1357   1.407       .  A
C1356      H1361   1.078       .  S
C1357      C1358   1.419       .  A
C1358      C1359   1.513       .  S
C1359      F1363   1.384       .  S
C1359      F1364   1.382       .  S
C1359      F1365   1.382       .  S
C1362      F1366   1.383       .  S
C1362      F1367   1.382       .  S
C1362      F1368   1.383       .  S
C1369      C1370   1.404       .  A
C1369      C1374   1.409       .  A
C1369      H1376   1.085       .  S
C1370      C1371   1.419       .  A
C1371      C1372   1.410       .  A
C1371      C1378   1.519       .  S
C1372      C1373   1.403       .  A
C1372      H1377   1.083       .  S
C1373      C1374   1.421       .  A
C1374      C1375   1.518       .  S
C1375      F1379   1.384       .  S
C1375      F1380   1.379       .  S
C1375      F1381   1.383       .  S
C1378      F1382   1.383       .  S
C1378      F1383   1.382       .  S
C1378      F1384   1.385       .  S
C1385      C1386   1.405       .  A
C1385      C1390   1.417       .  A
C1385      H1392   1.083       .  S
C1386      C1387   1.419       .  A
C1387      C1388   1.409       .  A
C1387      C1394   1.521       .  S
C1388      C1389   1.403       .  A
C1388      H1393   1.079       .  S
C1389      C1390   1.421       .  A
C1390      C1391   1.517       .  S
C1391      F1395   1.385       .  S
C1391      F1396   1.384       .  S
C1391      F1397   1.382       .  S
C1394      F1398   1.385       .  S
C1394      F1399   1.382       .  S
C1394      F1400   1.381       .  S
C1401      C1402   1.399       .  A
C1401      C1406   1.404       .  A
C1401      H1408   1.081       .  S
C1402      C1403   1.418       .  A
C1403      C1404   1.403       .  A
C1403      C1410   1.515       .  S
C1404      C1405   1.398       .  A
C1404      H1409   1.085       .  S
C1405      C1406   1.418       .  A
C1406      C1407   1.519       .  S
C1407      F1411   1.385       .  S
C1407      F1412   1.382       .  S
C1407      F1413   1.381       .  S
C1410      F1414   1.383       .  S
C1410      F1415   1.381       .  S
C1410      F1416   1.383       .  S
C1417      C1418   1.402       .  A
C1417      C1422   1.405       .  A
C1417      H1424   1.083       .  S
C1418      C1419   1.421       .  A
C1419      C1420   1.415       .  A
C1419      C1426   1.518       .  S
C1420      C1421   1.410       .  A
C1420      H1425   1.084       .  S
C1421      C1422   1.427       .  A
C1422      C1423   1.524       .  S
C1423      F1427   1.385       .  S
C1423      F1428   1.384       .  S
C1423      F1429   1.383       .  S
C1426      F1430   1.381       .  S
C1426      F1431   1.382       .  S
C1426      F1432   1.384       .  S
C1433      C1434   1.402       .  A
C1433      C1438   1.413       .  A
C1433      H1440   1.083       .  S
C1434      C1435   1.419       .  A
C1435      C1436   1.405       .  A
C1435      C1442   1.522       .  S
C1436      C1437   1.407       .  A
C1436      H1441   1.082       .  S
C1437      C1438   1.425       .  A
C1438      C1439   1.518       .  S
C1439      F1443   1.385       .  S
C1439      F1444   1.383       .  S
C1439      F1445   1.383       .  S
C1442      F1446   1.385       .  S
C1442      F1447   1.383       .  S
C1442      F1448   1.381       .  S
C1449      C1450   1.406       .  A
C1449      C1454   1.396       .  A
C1449      H1456   1.077       .  S
C1450      C1451   1.420       .  A
C1451      C1452   1.407       .  A
C1451      C1458   1.514       .  S
C1452      C1453   1.410       .  A
C1452      H1457   1.081       .  S
C1453      C1454   1.418       .  A
C1454      C1455   1.518       .  S
C1455      F1459   1.383       .  S
C1455      F1460   1.382       .  S
C1455      F1461   1.383       .  S
C1458      F1462   1.384       .  S
C1458      F1463   1.382       .  S
C1458      F1464   1.382       .  S
C1465      C1466   1.404       .  A
C1465      C1470   1.410       .  A
C1465      H1472   1.083       .  S
C1466      C1467   1.422       .  A
C1467      C1468   1.405       .  A
C1467      C1474   1.521       .  S
C1468      C1469   1.401       .  A
C1468      H1473   1.084       .  S
C1469      C1470   1.418       .  A
C1470      C1471   1.519       .  S
C1471      F1475   1.385       .  S
C1471      F1476   1.382       .  S
C1471      F1477   1.384       .  S
C1474      F1478   1.379       .  S
C1474      F1479   1.384       .  S
C1474      F1480   1.383       .  S
C1481      C1482   1.402       .  A
C1481      C1486   1.411       .  A
C1481      H1488   1.083       .  S
C1482      C1483   1.416       .  A
C1483      C1484   1.404       .  A
C1483      C1490   1.519       .  S
C1484      C1485   1.405       .  A
C1484      H1489   1.085       .  S
C1485      C1486   1.422       .  A
C1486      C1487   1.516       .  S
C1487      F1491   1.385       .  S
C1487      F1492   1.382       .  S
C1487      F1493   1.380       .  S
C1490      F1494   1.380       .  S
C1490      F1495   1.384       .  S
C1490      F1496   1.382       .  S
C1497      C1498   1.398       .  A
C1497      C1502   1.399       .  A
C1497      H1504   1.085       .  S
C1498      C1499   1.411       .  A
C1499      C1500   1.406       .  A
C1499      C1506   1.517       .  S
C1500      C1501   1.405       .  A
C1500      H1505   1.082       .  S
C1501      C1502   1.418       .  A
C1502      C1503   1.512       .  S
C1503      F1507   1.383       .  S
C1503      F1508   1.373       .  S
C1503      F1509   1.384       .  S
C1506      F1510   1.383       .  S
C1506      F1511   1.383       .  S
C1506      F1512   1.384       .  S
C1513      C1514   1.404       .  A
C1513      C1518   1.412       .  A
C1513      H1520   1.079       .  S
C1514      C1515   1.421       .  A
C1515      C1516   1.408       .  A
C1515      C1522   1.520       .  S
C1516      C1517   1.408       .  A
C1516      H1521   1.083       .  S
C1517      C1518   1.427       .  A
C1518      C1519   1.521       .  S
C1519      F1523   1.385       .  S
C1519      F1524   1.383       .  S
C1519      F1525   1.384       .  S
C1522      F1526   1.382       .  S
C1522      F1527   1.381       .  S
C1522      F1528   1.385       .  S
C1529      C1530   1.411       .  A
C1529      C1534   1.411       .  A
C1529      H1536   1.082       .  S
C1530      C1531   1.430       .  A
C1531      C1532   1.414       .  A
C1531      C1538   1.520       .  S
C1532      C1533   1.402       .  A
C1532      H1537   1.081       .  S
C1533      C1534   1.420       .  A
C1534      C1535   1.521       .  S
C1535      F1539   1.381       .  S
C1535      F1540   1.383       .  S
C1535      F1541   1.385       .  S
C1538      F1542   1.383       .  S
C1538      F1543   1.384       .  S
C1538      F1544   1.385       .  S
C1545      C1546   1.399       .  A
C1545      C1550   1.402       .  A
C1545      H1552   1.084       .  S
C1546      C1547   1.416       .  A
C1547      C1548   1.402       .  A
C1547      C1554   1.516       .  S
C1548      C1549   1.402       .  A
C1548      H1553   1.085       .  S
C1549      C1550   1.419       .  A
C1550      C1551   1.518       .  S
C1551      F1555   1.384       .  S
C1551      F1556   1.381       .  S
C1551      F1557   1.383       .  S
C1554      F1558   1.380       .  S
C1554      F1559   1.384       .  S
C1554      F1560   1.383       .  S
C1561      C1562   1.402       .  A
C1561      C1566   1.411       .  A
C1561      H1568   1.078       .  S
C1562      C1563   1.415       .  A
C1563      C1564   1.406       .  A
C1563      C1570   1.520       .  S
C1564      C1565   1.410       .  A
C1564      H1569   1.082       .  S
C1565      C1566   1.425       .  A
C1566      C1567   1.520       .  S
C1567      F1571   1.385       .  S
C1567      F1572   1.383       .  S
C1567      F1573   1.384       .  S
C1570      F1574   1.381       .  S
C1570      F1575   1.383       .  S
C1570      F1576   1.385       .  S
C1577      C1578   1.402       .  A
C1577      C1582   1.410       .  A
C1577      H1584   1.080       .  S
C1578      C1579   1.418       .  A
C1579      C1580   1.407       .  A
C1579      C1586   1.522       .  S
C1580      C1581   1.410       .  A
C1580      H1585   1.081       .  S
C1581      C1582   1.427       .  A
C1582      C1583   1.521       .  S
C1583      F1587   1.385       .  S
C1583      F1588   1.384       .  S
C1583      F1589   1.383       .  S
C1586      F1590   1.380       .  S
C1586      F1591   1.378       .  S
C1586      F1592   1.385       .  S
C1593      C1594   1.402       .  A
C1593      C1598   1.406       .  A
C1593      H1600   1.082       .  S
C1594      C1595   1.415       .  A
C1595      C1596   1.399       .  A
C1595      C1602   1.515       .  S
C1596      C1597   1.401       .  A
C1596      H1601   1.085       .  S
C1597      C1598   1.415       .  A
C1598      C1599   1.518       .  S
C1599      F1603   1.385       .  S
C1599      F1604   1.383       .  S
C1599      F1605   1.381       .  S
C1602      F1606   1.383       .  S
C1602      F1607   1.379       .  S
C1602      F1608   1.384       .  S
C1609      C1610   1.402       .  A
C1609      C1614   1.413       .  A
C1609      H1616   1.081       .  S
C1610      C1611   1.414       .  A
C1611      C1612   1.409       .  A
C1611      C1618   1.520       .  S
C1612      C1613   1.412       .  A
C1612      H1617   1.082       .  S
C1613      C1614   1.428       .  A
C1614      C1615   1.520       .  S
C1615      F1619   1.385       .  S
C1615      F1620   1.383       .  S
C1615      F1621   1.383       .  S
C1618      F1622   1.385       .  S
C1618      F1623   1.381       .  S
C1618      F1624   1.381       .  S
C1625      C1626   1.402       .  A
C1625      C1630   1.412       .  A
C1625      H1632   1.081       .  S
C1626      C1627   1.419       .  A
C1627      C1628   1.407       .  A
C1627      C1634   1.521       .  S
C1628      C1629   1.409       .  A
C1628      H1633   1.084       .  S
C1629      C1630   1.429       .  A
C1630      C1631   1.522       .  S
C1631      F1635   1.385       .  S
C1631      F1636   1.383       .  S
C1631      F1637   1.384       .  S
C1634      F1638   1.379       .  S
C1634      F1639   1.383       .  S
C1634      F1640   1.384       .  S
C1641      C1642   1.400       .  A
C1641      C1646   1.401       .  A
C1641      H1648   1.080       .  S
C1642      C1643   1.415       .  A
C1643      C1644   1.403       .  A
C1643      C1650   1.515       .  S
C1644      C1645   1.403       .  A
C1644      H1649   1.085       .  S
C1645      C1646   1.414       .  A
C1646      C1647   1.520       .  S
C1647      F1651   1.385       .  S
C1647      F1652   1.381       .  S
C1647      F1653   1.383       .  S
C1650      F1654   1.379       .  S
C1650      F1655   1.383       .  S
C1650      F1656   1.383       .  S
C1657      C1658   1.409       .  A
C1657      C1662   1.402       .  A
C1657      H1664   1.084       .  S
C1658      C1659   1.427       .  A
C1659      C1660   1.411       .  A
C1659      C1666   1.519       .  S
C1660      C1661   1.400       .  A
C1660      H1665   1.083       .  S
C1661      C1662   1.414       .  A
C1662      C1663   1.520       .  S
C1663      F1667   1.383       .  S
C1663      F1668   1.381       .  S
C1663      F1669   1.383       .  S
C1666      F1670   1.381       .  S
C1666      F1671   1.383       .  S
C1666      F1672   1.385       .  S
C1673      C1674   1.399       .  A
C1673      C1678   1.409       .  A
C1673      H1680   1.082       .  S
C1674      C1675   1.416       .  A
C1675      C1676   1.408       .  A
C1675      C1682   1.520       .  S
C1676      C1677   1.408       .  A
C1676      H1681   1.082       .  S
C1677      C1678   1.427       .  A
C1678      C1679   1.521       .  S
C1679      F1683   1.385       .  S
C1679      F1684   1.384       .  S
C1679      F1685   1.383       .  S
C1682      F1686   1.381       .  S
C1682      F1687   1.380       .  S
C1682      F1688   1.385       .  S
C1689      C1690   1.398       .  A
C1689      C1694   1.401       .  A
C1689      H1696   1.077       .  S
C1690      C1691   1.417       .  A
C1691      C1692   1.405       .  A
C1691      C1698   1.516       .  S
C1692      C1693   1.403       .  A
C1692      H1697   1.085       .  S
C1693      C1694   1.415       .  A
C1694      C1695   1.520       .  S
C1695      F1699   1.385       .  S
C1695      F1700   1.383       .  S
C1695      F1701   1.380       .  S
C1698      F1702   1.384       .  S
C1698      F1703   1.381       .  S
C1698      F1704   1.383       .  S
C1705      C1706   1.406       .  A
C1705      C1710   1.412       .  A
C1705      H1712   1.083       .  S
C1706      C1707   1.420       .  A
C1707      C1708   1.405       .  A
C1707      C1714   1.520       .  S
C1708      C1709   1.403       .  A
C1708      H1713   1.083       .  S
C1709      C1710   1.419       .  A
C1710      C1711   1.518       .  S
C1711      F1715   1.385       .  S
C1711      F1716   1.382       .  S
C1711      F1717   1.384       .  S
C1714      F1718   1.377       .  S
C1714      F1719   1.383       .  S
C1714      F1720   1.382       .  S
C1721      C1722   1.404       .  A
C1721      C1726   1.408       .  A
C1721      H1728   1.081       .  S
C1722      C1723   1.418       .  A
C1723      C1724   1.408       .  A
C1723      C1730   1.519       .  S
C1724      C1725   1.401       .  A
C1724      H1729   1.079       .  S
C1725      C1726   1.416       .  A
C1726      C1727   1.518       .  S
C1727      F1731   1.385       .  S
C1727      F1732   1.382       .  S
C1727      F1733   1.384       .  S
C1730      F1734   1.383       .  S
C1730      F1735   1.385       .  S
C1730      F1736   1.381       .  S
C1737      C1738   1.398       .  A
C1737      C1742   1.398       .  A
C1737      H1744   1.085       .  S
C1738      C1739   1.413       .  A
C1739      C1740   1.403       .  A
C1739      C1746   1.517       .  S
C1740      C1741   1.401       .  A
C1740      H1745   1.081       .  S
C1741      C1742   1.416       .  A
C1742      C1743   1.514       .  S
C1743      F1747   1.384       .  S
C1743      F1748   1.382       .  S
C1743      F1749   1.378       .  S
C1746      F1750   1.382       .  S
C1746      F1751   1.382       .  S
C1746      F1752   1.385       .  S
C1753      C1754   1.404       .  A
C1753      C1758   1.407       .  A
C1753      H1760   1.082       .  S
C1754      C1755   1.418       .  A
C1755      C1756   1.407       .  A
C1755      C1762   1.519       .  S
C1756      C1757   1.402       .  A
C1756      H1761   1.083       .  S
C1757      C1758   1.415       .  A
C1758      C1759   1.516       .  S
C1759      F1763   1.385       .  S
C1759      F1764   1.382       .  S
C1759      F1765   1.384       .  S
C1762      F1766   1.380       .  S
C1762      F1767   1.382       .  S
C1762      F1768   1.385       .  S
C1769      C1770   1.404       .  A
C1769      C1774   1.406       .  A
C1769      H1776   1.082       .  S
C1770      C1771   1.423       .  A
C1771      C1772   1.408       .  A
C1771      C1778   1.520       .  S
C1772      C1773   1.401       .  A
C1772      H1777   1.085       .  S
C1773      C1774   1.413       .  A
C1774      C1775   1.513       .  S
C1775      F1779   1.385       .  S
C1775      F1780   1.381       .  S
C1775      F1781   1.384       .  S
C1778      F1782   1.383       .  S
C1778      F1783   1.379       .  S
C1778      F1784   1.384       .  S
C1785      C1786   1.401       .  A
C1785      C1790   1.403       .  A
C1785      H1792   1.081       .  S
C1786      C1787   1.416       .  A
C1787      C1788   1.404       .  A
C1787      C1794   1.516       .  S
C1788      C1789   1.401       .  A
C1788      H1793   1.084       .  S
C1789      C1790   1.414       .  A
C1790      C1791   1.518       .  S
C1791      F1795   1.385       .  S
C1791      F1796   1.383       .  S
C1791      F1797   1.383       .  S
C1794      F1798   1.380       .  S
C1794      F1799   1.384       .  S
C1794      F1800   1.383       .  S
C1801      C1802   1.408       .  A
C1801      C1806   1.403       .  A
C1801      H1808   1.083       .  S
C1802      C1803   1.425       .  A
C1803      C1804   1.412       .  A
C1803      C1810   1.520       .  S
C1804      C1805   1.404       .  A
C1804      H1809   1.081       .  S
C1805      C1806   1.418       .  A
C1806      C1807   1.522       .  S
C1807      F1811   1.385       .  S
C1807      F1812   1.383       .  S
C1807      F1813   1.381       .  S
C1810      F1814   1.383       .  S
C1810      F1815   1.383       .  S
C1810      F1816   1.385       .  S
C1817      C1818   1.398       .  A
C1817      C1822   1.408       .  A
C1817      H1824   1.083       .  S
C1818      C1819   1.413       .  A
C1819      C1820   1.406       .  A
C1819      C1826   1.516       .  S
C1820      C1821   1.409       .  A
C1820      H1825   1.082       .  S
C1821      C1822   1.428       .  A
C1822      C1823   1.519       .  S
C1823      F1827   1.385       .  S
C1823      F1828   1.379       .  S
C1823      F1829   1.383       .  S
C1826      F1830   1.376       .  S
C1826      F1831   1.383       .  S
C1826      F1832   1.385       .  S
C1833      C1834   1.402       .  A
C1833      C1838   1.402       .  A
C1833      H1840   1.084       .  S
C1834      C1835   1.416       .  A
C1835      C1836   1.402       .  A
C1835      C1842   1.518       .  S
C1836      C1837   1.407       .  A
C1836      H1841   1.084       .  S
C1837      C1838   1.418       .  A
C1838      C1839   1.518       .  S
C1839      F1843   1.384       .  S
C1839      F1844   1.382       .  S
C1839      F1845   1.383       .  S
C1842      F1846   1.383       .  S
C1842      F1847   1.379       .  S
C1842      F1848   1.384       .  S
C1849      C1850   1.401       .  A
C1849      C1854   1.407       .  A
C1849      H1856   1.085       .  S
C1850      C1851   1.416       .  A
C1851      C1852   1.410       .  A
C1851      C1858   1.513       .  S
C1852      C1853   1.405       .  A
C1852      H1857   1.082       .  S
C1853      C1854   1.422       .  A
C1854      C1855   1.519       .  S
C1855      F1859   1.384       .  S
C1855      F1860   1.380       .  S
C1855      F1861   1.382       .  S
C1858      F1862   1.384       .  S
C1858      F1863   1.382       .  S
C1858      F1864   1.385       .  S
C1865      C1866   1.403       .  A
C1865      C1870   1.410       .  A
C1865      H1872   1.081       .  S
C1866      C1867   1.418       .  A
C1867      C1868   1.410       .  A
C1867      C1874   1.519       .  S
C1868      C1869   1.404       .  A
C1868      H1873   1.081       .  S
C1869      C1870   1.419       .  A
C1870      C1871   1.519       .  S
C1871      F1875   1.385       .  S
C1871      F1876   1.384       .  S
C1871      F1877   1.382       .  S
C1874      F1878   1.382       .  S
C1874      F1879   1.381       .  S
C1874      F1880   1.385       .  S
C1881      C1882   1.401       .  A
C1881      C1886   1.403       .  A
C1881      H1888   1.080       .  S
C1882      C1883   1.416       .  A
C1883      C1884   1.404       .  A
C1883      C1890   1.515       .  S
C1884      C1885   1.401       .  A
C1884      H1889   1.084       .  S
C1885      C1886   1.412       .  A
C1886      C1887   1.517       .  S
C1887      F1891   1.383       .  S
C1887      F1892   1.383       .  S
C1887      F1893   1.384       .  S
C1890      F1894   1.381       .  S
C1890      F1895   1.382       .  S
C1890      F1896   1.384       .  S
C1897      C1898   1.403       .  A
C1897      C1902   1.410       .  A
C1897      H1904   1.079       .  S
C1898      C1899   1.418       .  A
C1899      C1900   1.407       .  A
C1899      C1906   1.521       .  S
C1900      C1901   1.410       .  A
C1900      H1905   1.082       .  S
C1901      C1902   1.425       .  A
C1902      C1903   1.521       .  S
C1903      F1907   1.385       .  S
C1903      F1908   1.384       .  S
C1903      F1909   1.383       .  S
C1906      F1910   1.385       .  S
C1906      F1911   1.380       .  S
C1906      F1912   1.381       .  S
C1913      C1914   1.411       .  A
C1913      C1918   1.407       .  A
C1913      H1920   1.082       .  S
C1914      C1915   1.426       .  A
C1915      C1916   1.410       .  A
C1915      C1922   1.520       .  S
C1916      C1917   1.401       .  A
C1916      H1921   1.078       .  S
C1917      C1918   1.414       .  A
C1918      C1919   1.520       .  S
C1919      F1923   1.380       .  S
C1919      F1924   1.385       .  S
C1919      F1925   1.382       .  S
C1922      F1926   1.384       .  S
C1922      F1927   1.381       .  S
C1922      F1928   1.385       .  S
C1929      C1930   1.401       .  A
C1929      C1934   1.401       .  A
C1929      H1936   1.085       .  S
C1930      C1931   1.414       .  A
C1931      C1932   1.401       .  A
C1931      C1938   1.519       .  S
C1932      C1933   1.400       .  A
C1932      H1937   1.081       .  S
C1933      C1934   1.415       .  A
C1934      C1935   1.516       .  S
C1935      F1939   1.384       .  S
C1935      F1940   1.379       .  S
C1935      F1941   1.383       .  S
C1938      F1942   1.380       .  S
C1938      F1943   1.383       .  S
C1938      F1944   1.385       .  S
C1945      C1946   1.398       .  A
C1945      C1950   1.410       .  A
C1945      H1952   1.083       .  S
C1946      C1947   1.416       .  A
C1947      C1948   1.409       .  A
C1947      C1954   1.518       .  S
C1948      C1949   1.409       .  A
C1948      H1953   1.084       .  S
C1949      C1950   1.430       .  A
C1950      C1951   1.520       .  S
C1951      F1955   1.385       .  S
C1951      F1956   1.383       .  S
C1951      F1957   1.378       .  S
C1954      F1958   1.381       .  S
C1954      F1959   1.383       .  S
C1954      F1960   1.384       .  S
C1961      C1962   1.409       .  A
C1961      C1966   1.411       .  A
C1961      H1968   1.081       .  S
C1962      C1963   1.424       .  A
C1963      C1964   1.407       .  A
C1963      C1970   1.520       .  S
C1964      C1965   1.398       .  A
C1964      H1969   1.085       .  S
C1965      C1966   1.413       .  A
C1966      C1967   1.518       .  S
C1967      F1971   1.385       .  S
C1967      F1972   1.383       .  S
C1967      F1973   1.383       .  S
C1970      F1974   1.382       .  S
C1970      F1975   1.380       .  S
C1970      F1976   1.385       .  S
C1977      C1978   1.400       .  A
C1977      C1982   1.399       .  A
C1977      H1984   1.081       .  S
C1978      C1979   1.415       .  A
C1979      C1980   1.402       .  A
C1979      C1986   1.514       .  S
C1980      C1981   1.400       .  A
C1980      H1985   1.085       .  S
C1981      C1982   1.414       .  A
C1982      C1983   1.519       .  S
C1983      F1987   1.384       .  S
C1983      F1988   1.381       .  S
C1983      F1989   1.382       .  S
C1986      F1990   1.383       .  S
C1986      F1991   1.378       .  S
C1986      F1992   1.383       .  S
C1993      C1994   1.404       .  A
C1993      C1998   1.407       .  A
C1993      H2000   1.079       .  S
C1994      C1995   1.418       .  A
C1995      C1996   1.405       .  A
C1995      C2002   1.519       .  S
C1996      C1997   1.401       .  A
C1996      H2001   1.084       .  S
C1997      C1998   1.414       .  A
C1998      C1999   1.518       .  S
C1999      F2003   1.385       .  S
C1999      F2004   1.384       .  S
C1999      F2005   1.382       .  S
C2002      F2006   1.385       .  S
C2002      F2007   1.383       .  S
C2002      F2008   1.380       .  S
C2009      C2010   1.399       .  A
C2009      C2014   1.407       .  A
C2009      H2016   1.081       .  S
C2010      C2011   1.416       .  A
C2011      C2012   1.405       .  A
C2011      C2018   1.519       .  S
C2012      C2013   1.406       .  A
C2012      H2017   1.084       .  S
C2013      C2014   1.423       .  A
C2014      C2015   1.519       .  S
C2015      F2019   1.385       .  S
C2015      F2020   1.379       .  S
C2015      F2021   1.383       .  S
C2018      F2022   1.380       .  S
C2018      F2023   1.384       .  S
C2018      F2024   1.383       .  S
C2025      C2026   1.401       .  A
C2025      C2030   1.404       .  A
C2025      H2032   1.082       .  S
C2026      C2027   1.417       .  A
C2027      C2028   1.400       .  A
C2027      C2034   1.517       .  S
C2028      C2029   1.398       .  A
C2028      H2033   1.085       .  S
C2029      C2030   1.414       .  A
C2030      C2031   1.518       .  S
C2031      F2035   1.384       .  S
C2031      F2036   1.382       .  S
C2031      F2037   1.381       .  S
C2034      F2038   1.381       .  S
C2034      F2039   1.383       .  S
C2034      F2040   1.383       .  S
C2041      C2042   1.402       .  A
C2041      C2046   1.411       .  A
C2041      H2048   1.081       .  S
C2042      C2043   1.418       .  A
C2043      C2044   1.412       .  A
C2043      C2050   1.519       .  S
C2044      C2045   1.405       .  A
C2044      H2049   1.083       .  S
C2045      C2046   1.421       .  A
C2046      C2047   1.519       .  S
C2047      F2051   1.384       .  S
C2047      F2052   1.382       .  S
C2047      F2053   1.384   1_554  S
C2050      F2054   1.382       .  S
C2050      F2055   1.384       .  S
C2050      F2056   1.382       .  S
C2057      C2058   1.402       .  A
C2057      C2062   1.414       .  A
C2057      H2064   1.081       .  S
C2058      C2059   1.417       .  A
C2059      C2060   1.409       .  A
C2059      C2066   1.519       .  S
C2060      C2061   1.407       .  A
C2060      H2065   1.083       .  S
C2061      C2062   1.425       .  A
C2062      C2063   1.519       .  S
C2063      F2067   1.385       .  S
C2063      F2068   1.383       .  S
C2063      F2069   1.383       .  S
C2066      F2070   1.378       .  S
C2066      F2071   1.382       .  S
C2066      F2072   1.385       .  S
C2073      C2074   1.399       .  A
C2073      C2078   1.402       .  A
C2073      H2080   1.079       .  S
C2074      C2075   1.416       .  A
C2075      C2076   1.403       .  A
C2075      C2082   1.517       .  S
C2076      C2077   1.401       .  A
C2076      H2081   1.085       .  S
C2077      C2078   1.414       .  A
C2078      C2079   1.519       .  S
C2079      F2083   1.385       .  S
C2079      F2084   1.382       .  S
C2079      F2085   1.382       .  S
C2082      F2086   1.383       .  S
C2082      F2087   1.381       .  S
C2082      F2088   1.384       .  S
C2089      C2090   1.401       .  A
C2089      C2094   1.409       .  A
C2089      H2096   1.082       .  S
C2090      C2091   1.416       .  A
C2091      C2092   1.404       .  A
C2091      C2098   1.520       .  S
C2092      C2093   1.409       .  A
C2092      H2097   1.084       .  S
C2093      C2094   1.428       .  A
C2094      C2095   1.522       .  S
C2095      F2099   1.385       .  S
C2095      F2100   1.383       .  S
C2095      F2101   1.384       .  S
C2098      F2102   1.383       .  S
C2098      F2103   1.378       .  S
C2098      F2104   1.384       .  S
C2105      C2106   1.397       .  A
C2105      C2110   1.406       .  A
C2105      H2112   1.079       .  S
C2106      C2107   1.414       .  A
C2107      C2108   1.410       .  A
C2107      C2114   1.520       .  S
C2108      C2109   1.412       .  A
C2108      H2113   1.082       .  S
C2109      C2110   1.429       .  A
C2110      C2111   1.522       .  S
C2111      F2115   1.385       .  S
C2111      F2116   1.383       .  S
C2111      F2117   1.384       .  S
C2114      F2118   1.381       .  S
C2114      F2119   1.383       .  S
C2114      F2120   1.385       .  S
C2121      C2122   1.400       .  A
C2121      C2126   1.401       .  A
C2121      H2128   1.083       .  S
C2122      C2123   1.415       .  A
C2123      C2124   1.400       .  A
C2123      C2130   1.515       .  S
C2124      C2125   1.401       .  A
C2124      H2129   1.085       .  S
C2125      C2126   1.417       .  A
C2126      C2127   1.519       .  S
C2127      F2131   1.384       .  S
C2127      F2132   1.381       .  S
C2127      F2133   1.383       .  S
C2130      F2134   1.383       .  S
C2130      F2135   1.378       .  S
C2130      F2136   1.384       .  S
C2137      C2138   1.404       .  A
C2137      C2142   1.413       .  A
C2137      H2144   1.077       .  S
C2138      C2139   1.420       .  A
C2139      C2140   1.407       .  A
C2139      C2146   1.521       .  S
C2140      C2141   1.408       .  A
C2140      H2145   1.084       .  S
C2141      C2142   1.426       .  A
C2142      C2143   1.520       .  S
C2143      F2147   1.385       .  S
C2143      F2148   1.383       .  S
C2143      F2149   1.384       .  S
C2146      F2150   1.383       .  S
C2146      F2151   1.381       .  S
C2146      F2152   1.384       .  S
C2153      C2154   1.405       .  A
C2153      C2158   1.409       .  A
C2153      H2160   1.081       .  S
C2154      C2155   1.424       .  A
C2155      C2156   1.406       .  A
C2155      C2162   1.521       .  S
C2156      C2157   1.400       .  A
C2156      H2161   1.085       .  S
C2157      C2158   1.414       .  A
C2158      C2159   1.517       .  S
C2159      F2163   1.383       .  S
C2159      F2164   1.382       .  S
C2159      F2165   1.385       .  S
C2162      F2166   1.384       .  S
C2162      F2167   1.380       .  S
C2162      F2168   1.383       .  S
C2169      C2170   1.402       .  A
C2169      C2174   1.405       .  A
C2169      H2176   1.083       .  S
C2170      C2171   1.416       .  A
C2171      C2172   1.402       .  A
C2171      C2178   1.520       .  S
C2172      C2173   1.400       .  A
C2172      H2177   1.083       .  S
C2173      C2174   1.411       .  A
C2174      C2175   1.512       .  S
C2175      F2179   1.385       .  S
C2175      F2180   1.381       .  S
C2175      F2181   1.379       .  S
C2178      F2182   1.383       .  S
C2178      F2183   1.381       .  S
C2178      F2184   1.385       .  S
C2185      C2186   1.406       .  A
C2185      C2190   1.409       .  A
C2185      H2192   1.083       .  S
C2186      C2187   1.421       .  A
C2187      C2188   1.408       .  A
C2187      C2194   1.520       .  S
C2188      C2189   1.400       .  A
C2188      H2193   1.079       .  S
C2189      C2190   1.417       .  A
C2190      C2191   1.519       .  S
C2191      F2195   1.382       .  S
C2191      F2196   1.379       .  S
C2191      F2197   1.385       .  S
C2194      F2198   1.382       .  S
C2194      F2199   1.384       .  S
C2194      F2200   1.384       .  S
C2201      C2202   1.400       .  A
C2201      C2206   1.411       .  A
C2201      H2208   1.080       .  S
C2202      C2203   1.414       .  A
C2203      C2204   1.407       .  A
C2203      C2210   1.520       .  S
C2204      C2205   1.411       .  A
C2204      H2209   1.082       .  S
C2205      C2206   1.428       .  A
C2206      C2207   1.521       .  S
C2207      F2211   1.385       .  S
C2207      F2212   1.384       .  S
C2207      F2213   1.383       .  S
C2210      F2214   1.382       .  S
C2210      F2215   1.381       .  S
C2210      F2216   1.384       .  S
C2217      C2218   1.398       .  A
C2217      C2222   1.399       .  A
C2217      H2224   1.080       .  S
C2218      C2219   1.416       .  A
C2219      C2220   1.403       .  A
C2219      C2226   1.516       .  S
C2220      C2221   1.403       .  A
C2220      H2225   1.085       .  S
C2221      C2222   1.417       .  A
C2222      C2223   1.519       .  S
C2223      F2227   1.384       .  S
C2223      F2228   1.383       .  S
C2223      F2229   1.381       .  S
C2226      F2230   1.381       .  S
C2226      F2231   1.383       .  S
C2226      F2232   1.383       .  S
C2233      C2234   1.407       .  A
C2233      C2238   1.403       .  A
C2233      H2240   1.084       .  S
C2234      C2235   1.427       .  A
C2235      C2236   1.413       .  A
C2235      C2242   1.519       .  S
C2236      C2237   1.403       .  A
C2236      H2241   1.083       .  S
C2237      C2238   1.417       .  A
C2238      C2239   1.516       .  S
C2239      F2243   1.384       .  S
C2239      F2244   1.377       .  S
C2239      F2245   1.382       .  S
C2242      F2246   1.383       .  S
C2242      F2247   1.380       .  S
C2242      F2248   1.385       .  S
C2249      C2250   1.400       .  A
C2249      C2254   1.405       .  A
C2249      H2256   1.076       .  S
C2250      C2251   1.421       .  A
C2251      C2252   1.411       .  A
C2251      C2258   1.519       .  S
C2252      C2253   1.403       .  A
C2252      H2257   1.083       .  S
C2253      C2254   1.415       .  A
C2254      C2255   1.515       .  S
C2255      F2259   1.384       .  S
C2255      F2260   1.382       .  S
C2255      F2261   1.383       .  S
C2258      F2262   1.381       .  S
C2258      F2263   1.382       .  S
C2258      F2264   1.385       .  S
C2265      C2266   1.402       .  A
C2265      C2270   1.409       .  A
C2265      H2272   1.082       .  S
C2266      C2267   1.420       .  A
C2267      C2268   1.401       .  A
C2267      C2274   1.515       .  S
C2268      C2269   1.399       .  A
C2268      H2273   1.085       .  S
C2269      C2270   1.417       .  A
C2270      C2271   1.518       .  S
C2271      F2275   1.384       .  S
C2271      F2276   1.381       .  S
C2271      F2277   1.383       .  S
C2274      F2278   1.378       .  S
C2274      F2279   1.381       .  S
C2274      F2280   1.383       .  S
C2281      C2282   1.398       .  A
C2281      C2286   1.407       .  A
C2281      H2288   1.080       .  S
C2282      C2283   1.416       .  A
C2283      C2284   1.411       .  A
C2283      C2290   1.518       .  S
C2284      C2285   1.408       .  A
C2284      H2289   1.083       .  S
C2285      C2286   1.424       .  A
C2286      C2287   1.520       .  S
C2287      F2291   1.385       .  S
C2287      F2292   1.382       .  S
C2287      F2293   1.382       .  S
C2290      F2294   1.382       .  S
C2290      F2295   1.379       .  S
C2290      F2296   1.385       .  S
C2297      C2298   1.402       .  A
C2297      C2302   1.414       .  A
C2297      H2304   1.083       .  S
C2298      C2299   1.415       .  A
C2299      C2300   1.404       .  A
C2299      C2306   1.519       .  S
C2300      C2301   1.410       .  A
C2300      H2305   1.084       .  S
C2301      C2302   1.429       .  A
C2302      C2303   1.520       .  S
C2303      F2307   1.385       .  S
C2303      F2308   1.379       .  S
C2303      F2309   1.383       .  S
C2306      F2310   1.383       .  S
C2306      F2311   1.381       .  S
C2306      F2312   1.384       .  S
C2313      C2314   1.399       .  A
C2313      C2318   1.401       .  A
C2313      H2320   1.077       .  S
C2314      C2315   1.417       .  A
C2315      C2316   1.404       .  A
C2315      C2322   1.516       .  S
C2316      C2317   1.401       .  A
C2316      H2321   1.085       .  S
C2317      C2318   1.414       .  A
C2318      C2319   1.519       .  S
C2319      F2323   1.385       .  S
C2319      F2324   1.382       .  S
C2319      F2325   1.379       .  S
C2322      F2326   1.383       .  S
C2322      F2327   1.380       .  S
C2322      F2328   1.383       .  S
C2329      C2330   1.402       .  A
C2329      C2334   1.408       .  A
C2329      H2336   1.085       .  S
C2330      C2331   1.415       .  A
C2331      C2332   1.409       .  A
C2331      C2338   1.516       .  S
C2332      C2333   1.405       .  A
C2332      H2337   1.082       .  S
C2333      C2334   1.422       .  A
C2334      C2335   1.519       .  S
C2335      F2339   1.384       .  S
C2335      F2340   1.379       .  S
C2335      F2341   1.383       .  S
C2338      F2342   1.384       .  S
C2338      F2343   1.382       .  S
C2338      F2344   1.385       .  S
C2345      C2346   1.403       .  A
C2345      C2350   1.409       .  A
C2345      H2352   1.081       .  S
C2346      C2347   1.419       .  A
C2347      C2348   1.411       .  A
C2347      C2354   1.519       .  S
C2348      C2349   1.403       .  A
C2348      H2353   1.083       .  S
C2349      C2350   1.417       .  A
C2350      C2351   1.519       .  S
C2351      F2355   1.384       .  S
C2351      F2356   1.384       .  S
C2351      F2357   1.382       .  S
C2354      F2358   1.385       .  S
C2354      F2359   1.383       .  S
C2354      F2360   1.381       .  S
C2361      C2362   1.400       .  A
C2361      C2366   1.402       .  A
C2361      H2368   1.081       .  S
C2362      C2363   1.416       .  A
C2363      C2364   1.400       .  A
C2363      C2370   1.516       .  S
C2364      C2365   1.400       .  A
C2364      H2369   1.085       .  S
C2365      C2366   1.414       .  A
C2366      C2367   1.518       .  S
C2367      F2371   1.384       .  S
C2367      F2372   1.383       .  S
C2367      F2373   1.381       .  S
C2370      F2374   1.379       .  S
C2370      F2375   1.383       .  S
C2370      F2376   1.384       .  S
C2377      C2378   1.398       .  A
C2377      C2382   1.408       .  A
C2377      H2384   1.079       .  S
C2378      C2379   1.415       .  A
C2379      C2380   1.410       .  A
C2379      C2386   1.519       .  S
C2380      C2381   1.410       .  A
C2380      H2385   1.082       .  S
C2381      C2382   1.428       .  A
C2382      C2383   1.522       .  S
C2383      F2387   1.385       .  S
C2383      F2388   1.383       .  S
C2383      F2389   1.383       .  S
C2386      F2390   1.382       .  S
C2386      F2391   1.381       .  S
C2386      F2392   1.385       .  S
C2393      C2394   1.402       .  A
C2393      C2398   1.408       .  A
C2393      H2400   1.077       .  S
C2394      C2395   1.419       .  A
C2395      C2396   1.409       .  A
C2395      C2402   1.520       .  S
C2396      C2397   1.409       .  A
C2396      H2401   1.083       .  S
C2397      C2398   1.426       .  A
C2398      C2399   1.521       .  S
C2399      F2403   1.385       .  S
C2399      F2404   1.384       .  S
C2399      F2405   1.383       .  S
C2402      F2406   1.385       .  S
C2402      F2407   1.381       .  S
C2402      F2408   1.382       .  S
C2409      C2410   1.400       .  A
C2409      C2414   1.403       .  A
C2409      H2416   1.082       .  S
C2410      C2411   1.417       .  A
C2411      C2412   1.405       .  A
C2411      C2418   1.515       .  S
C2412      C2413   1.403       .  A
C2412      H2417   1.085       .  S
C2413      C2414   1.416       .  A
C2414      C2415   1.518       .  S
C2415      F2419   1.385       .  S
C2415      F2420   1.378       .  S
C2415      F2421   1.383       .  S
C2418      F2422   1.379       .  S
C2418      F2423   1.383       .  S
C2418      F2424   1.383       .  S
C2425      C2426   1.404       .  A
C2425      C2430   1.406       .  A
C2425      H2432   1.083       .  S
C2426      C2427   1.421       .  A
C2427      C2428   1.412       .  A
C2427      C2434   1.519       .  S
C2428      C2429   1.405       .  A
C2428      H2433   1.084       .  S
C2429      C2430   1.414       .  A
C2430      C2431   1.515       .  S
C2431      F2435   1.384       .  S
C2431      F2436   1.382       .  S
C2431      F2437   1.382       .  S
C2434      F2438   1.380       .  S
C2434      F2439   1.383       .  S
C2434      F2440   1.384       .  S
C2441      C2442   1.403       .  A
C2441      C2446   1.410       .  A
C2441      H2448   1.083       .  S
C2442      C2443   1.417       .  A
C2443      C2444   1.407       .  A
C2443      C2450   1.521       .  S
C2444      C2445   1.404       .  A
C2444      H2449   1.083       .  S
C2445      C2446   1.418       .  A
C2446      C2447   1.516       .  S
C2447      F2451   1.385       .  S
C2447      F2452   1.383       .  S
C2447      F2453   1.382       .  S
C2450      F2454   1.383       .  S
C2450      F2455   1.381       .  S
C2450      F2456   1.385       .  S
C2457      C2458   1.403       .  A
C2457      C2462   1.403       .  A
C2457      H2464   1.082       .  S
C2458      C2459   1.415       .  A
C2459      C2460   1.402       .  A
C2459      C2466   1.516       .  S
C2460      C2461   1.404       .  A
C2460      H2465   1.085       .  S
C2461      C2462   1.419       .  A
C2462      C2463   1.519       .  S
C2463      F2467   1.384       .  S
C2463      F2468   1.381       .  S
C2463      F2469   1.383       .  S
C2466      F2470   1.384       .  S
C2466      F2471   1.381       .  S
C2466      F2472   1.382       .  S
C2473      C2474   1.400       .  A
C2473      C2478   1.410       .  A
C2473      H2480   1.082       .  S
C2474      C2475   1.418       .  A
C2475      C2476   1.415       .  A
C2475      C2482   1.519       .  S
C2476      C2477   1.410       .  A
C2476      H2481   1.083       .  S
C2477      C2478   1.429       .  A
C2478      C2479   1.522       .  S
C2479      F2483   1.385       .  S
C2479      F2484   1.383       .  S
C2479      F2485   1.384       .  S
C2482      F2486   1.383       .  S
C2482      F2487   1.381       .  S
C2482      F2488   1.385       .  S
C2489      C2490   1.413       .  A
C2489      C2494   1.415       .  A
C2489      H2496   1.082       .  S
C2490      C2491   1.431       .  A
C2491      C2492   1.411       .  A
C2491      C2498   1.521       .  S
C2492      C2493   1.400       .  A
C2492      H2497   1.083       .  S
C2493      C2494   1.414       .  A
C2494      C2495   1.515       .  S
C2495      F2499   1.384       .  S
C2495      F2500   1.383       .  S
C2495      F2501   1.379       .  S
C2498      F2502   1.383       .  S
C2498      F2503   1.382       .  S
C2498      F2504   1.385       .  S
C2505      C2506   1.400       .  A
C2505      C2510   1.396       .  A
C2505      H2512   1.079       .  S
C2506      C2507   1.419       .  A
C2507      C2508   1.403       .  A
C2507      C2514   1.517       .  S
C2508      C2509   1.408       .  A
C2508      H2513   1.082       .  S
C2509      C2510   1.422       .  A
C2510      C2511   1.523       .  S
C2511      F2515   1.384       .  S
C2511      F2516   1.381       .  S
C2511      F2517   1.382       .  S
C2514      F2518   1.380       .  S
C2514      F2519   1.383       .  S
C2514      F2520   1.384       .  S
C2521      C2522   1.402       .  A
C2521      C2526   1.406       .  A
C2521      H2528   1.083       .  S
C2522      C2523   1.412       .  A
C2523      C2524   1.409       .  A
C2523      C2530   1.517       .  S
C2524      C2525   1.410       .  A
C2524      H2529   1.083       .  S
C2525      C2526   1.424       .  A
C2526      C2527   1.521       .  S
C2527      F2531   1.385       .  S
C2527      F2532   1.383       .  S
C2527      F2533   1.383       .  S
C2530      F2534   1.383       .  S
C2530      F2535   1.380       .  S
C2530      F2536   1.384       .  S
C2537      C2538   1.404       .  A
C2537      C2542   1.414       .  A
C2537      H2544   1.083       .  S
C2538      C2539   1.423       .  A
C2539      C2540   1.403       .  A
C2539      C2546   1.526       .  S
C2540      C2541   1.405       .  A
C2540      H2545   1.083       .  S
C2541      C2542   1.426       .  A
C2542      C2543   1.519       .  S
C2543      F2547   1.385       .  S
C2543      F2548   1.383       .  S
C2543      F2549   1.383       .  S
C2546      F2550   1.381       .  S
C2546      F2551   1.381       .  S
C2546      F2552   1.385       .  S
C2553      C2554   1.410       .  A
C2553      C2558   1.401       .  A
C2553      H2560   1.074       .  S
C2554      C2555   1.421       .  A
C2555      C2556   1.403       .  A
C2555      C2562   1.513       .  S
C2556      C2557   1.410       .  A
C2556      H2561   1.082       .  S
C2557      C2558   1.422       .  A
C2558      C2559   1.522       .  S
C2559      F2563   1.384       .  S
C2559      F2564   1.382       .  S
C2559      F2565   1.383       .  S
C2562      F2566   1.377       .  S
C2562      F2567   1.381       .  S
C2562      F2568   1.384       .  S
C2569      C2570   1.403       .  A
C2569      C2574   1.406       .  A
C2569      H2576   1.083       .  S
C2570      C2571   1.422       .  A
C2571      C2572   1.410       .  A
C2571      C2578   1.519       .  S
C2572      C2573   1.401       .  A
C2572      H2577   1.085       .  S
C2573      C2574   1.415       .  A
C2574      C2575   1.517       .  S
C2575      F2579   1.384       .  S
C2575      F2580   1.382       .  S
C2575      F2581   1.382       .  S
C2578      F2582   1.384       .  S
C2578      F2583   1.380       .  S
C2578      F2584   1.382       .  S
C2585      C2586   1.403       .  A
C2585      C2590   1.412       .  A
C2585      H2592   1.083       .  S
C2586      C2587   1.420       .  A
C2587      C2588   1.407       .  A
C2587      C2594   1.520       .  S
C2588      C2589   1.403       .  A
C2588      H2593   1.083       .  S
C2589      C2590   1.421       .  A
C2590      C2591   1.518       .  S
C2591      F2595   1.385       .  S
C2591      F2596   1.384       .  S
C2591      F2597   1.382       .  S
C2594      F2598   1.382       .  S
C2594      F2599   1.381       .  S
C2594      F2600   1.385       .  S
C2601      C2602   1.400       .  A
C2601      C2606   1.402       .  A
C2601      H2608   1.082       .  S
C2602      C2603   1.420       .  A
C2603      C2604   1.405       .  A
C2603      C2610   1.515       .  S
C2604      C2605   1.399       .  A
C2604      H2609   1.084       .  S
C2605      C2606   1.418       .  A
C2606      C2607   1.520       .  S
C2607      F2611   1.385       .  S
C2607      F2612   1.383       .  S
C2607      F2613   1.382       .  S
C2610      F2614   1.384       .  S
C2610      F2615   1.381       .  S
C2610      F2616   1.383       .  S
C2617      C2618   1.404       .  A
C2617      C2622   1.410       .  A
C2617      H2624   1.083       .  S
C2618      C2619   1.417       .  A
C2619      C2620   1.406       .  A
C2619      C2626   1.515       .  S
C2620      C2621   1.399       .  A
C2620      H2625   1.079       .  S
C2621      C2622   1.417       .  A
C2622      C2623   1.518       .  S
C2623      F2627   1.384       .  S
C2623      F2628   1.380       .  S
C2623      F2629   1.382       .  S
C2626      F2630   1.384       .  S
C2626      F2631   1.384   1_545  S
C2626      F2632   1.381       .  S
C2633      C2634   1.410       .  A
C2633      C2638   1.405       .  A
C2633      H2640   1.082       .  S
C2634      C2635   1.429       .  A
C2635      C2636   1.410       .  A
C2635      C2642   1.522       .  S
C2636      C2637   1.399       .  A
C2636      H2641   1.079       .  S
C2637      C2638   1.413       .  A
C2638      C2639   1.520       .  S
C2639      F2643   1.385       .  S
C2639      F2644   1.381       .  S
C2639      F2645   1.381       .  S
C2642      F2646   1.382       .  S
C2642      F2647   1.383       .  S
C2642      F2648   1.385       .  S
C2649      C2650   1.407       .  A
C2649      C2654   1.402       .  A
C2649      H2656   1.085       .  S
C2650      C2651   1.421       .  A
C2651      C2652   1.407       .  A
C2651      C2658   1.519       .  S
C2652      C2653   1.399       .  A
C2652      H2657   1.078       .  S
C2653      C2654   1.415       .  A
C2654      C2655   1.517       .  S
C2655      F2659   1.383       .  S
C2655      F2660   1.383       .  S
C2655      F2661   1.381       .  S
C2658      F2662   1.383       .  S
C2658      F2663   1.382       .  S
C2658      F2664   1.385       .  S
C2665      C2666   1.402       .  A
C2665      C2670   1.412       .  A
C2665      H2672   1.082       .  S
C2666      C2667   1.415       .  A
C2667      C2668   1.408       .  A
C2667      C2674   1.516       .  S
C2668      C2669   1.405       .  A
C2668      H2673   1.083       .  S
C2669      C2670   1.424       .  A
C2670      C2671   1.519       .  S
C2671      F2675   1.385       .  S
C2671      F2676   1.383       .  S
C2671      F2677   1.383       .  S
C2674      F2678   1.378       .  S
C2674      F2679   1.383       .  S
C2674      F2680   1.384       .  S
C2681      C2682   1.400       .  A
C2681      C2686   1.407       .  A
C2681      H2688   1.085       .  S
C2682      C2683   1.416       .  A
C2683      C2684   1.409       .  A
C2683      C2690   1.518       .  S
C2684      C2685   1.404       .  A
C2684      H2689   1.082       .  S
C2685      C2686   1.425       .  A
C2686      C2687   1.523       .  S
C2687      F2691   1.385       .  S
C2687      F2692   1.383       .  S
C2687      F2693   1.381       .  S
C2690      F2694   1.382       .  S
C2690      F2695   1.383       .  S
C2690      F2696   1.385       .  S
C2697      C2698   1.403       .  A
C2697      C2702   1.405       .  A
C2697      H2704   1.085       .  S
C2698      C2699   1.415       .  A
C2699      C2700   1.404       .  A
C2699      C2706   1.518       .  S
C2700      C2701   1.403       .  A
C2700      H2705   1.081       .  S
C2701      C2702   1.420       .  A
C2702      C2703   1.515       .  S
C2703      F2707   1.383       .  S
C2703      F2708   1.375       .  S
C2703      F2709   1.384       .  S
C2706      F2710   1.382       .  S
C2706      F2711   1.383       .  S
C2706      F2712   1.385       .  S
C2713      C2714   1.409       .  A
C2713      C2718   1.409       .  A
C2713      H2720   1.084       .  S
C2714      C2715   1.430       .  A
C2715      C2716   1.411       .  A
C2715      C2722   1.521       .  S
C2716      C2717   1.400       .  A
C2716      H2721   1.083       .  S
C2717      C2718   1.418       .  A
C2718      C2719   1.514       .  S
C2719      F2723   1.385       .  S
C2719      F2724   1.377       .  S
C2719      F2725   1.382       .  S
C2722      F2726   1.383       .  S
C2722      F2727   1.379       .  S
C2722      F2728   1.385       .  S
C2729      C2730   1.399       .  A
C2729      C2734   1.409       .  A
C2729      H2736   1.081       .  S
C2730      C2731   1.417       .  A
C2731      C2732   1.410       .  A
C2731      C2738   1.518       .  S
C2732      C2733   1.411       .  A
C2732      H2737   1.084       .  S
C2733      C2734   1.429       .  A
C2734      C2735   1.521       .  S
C2735      F2739   1.385       .  S
C2735      F2740   1.383       .  S
C2735      F2741   1.381       .  S
C2738      F2742   1.381       .  S
C2738      F2743   1.382       .  S
C2738      F2744   1.384       .  S
C2745      C2746   1.401       .  A
C2745      C2750   1.403       .  A
C2745      H2752   1.083       .  S
C2746      C2747   1.418       .  A
C2747      C2748   1.400       .  A
C2747      C2754   1.517       .  S
C2748      C2749   1.403       .  A
C2748      H2753   1.085       .  S
C2749      C2750   1.420       .  A
C2750      C2751   1.520       .  S
C2751      F2755   1.383       .  S
C2751      F2756   1.383       .  S
C2751      F2757   1.382       .  S
C2754      F2758   1.377       .  S
C2754      F2759   1.384       .  S
C2754      F2760   1.383       .  S
C2761      C2762   1.409       .  A
C2761      C2766   1.406       .  A
C2761      H2768   1.082       .  S
C2762      C2763   1.425       .  A
C2763      C2764   1.409       .  A
C2763      C2770   1.520       .  S
C2764      C2765   1.400       .  A
C2764      H2769   1.082       .  S
C2765      C2766   1.411       .  A
C2766      C2767   1.516       .  S
C2767      F2771   1.384       .  S
C2767      F2772   1.383       .  S
C2767      F2773   1.379       .  S
C2770      F2774   1.383       .  S
C2770      F2775   1.383       .  S
C2770      F2776   1.385       .  S
C2777      C2778   1.407       .  A
C2777      C2782   1.409       .  A
C2777      H2784   1.083       .  S
C2778      C2779   1.422       .  A
C2779      C2780   1.402       .  A
C2779      C2786   1.521       .  S
C2780      C2781   1.399       .  A
C2780      H2785   1.086       .  S
C2781      C2782   1.412       .  A
C2782      C2783   1.515       .  S
C2783      F2787   1.385       .  S
C2783      F2788   1.383       .  S
C2783      F2789   1.382       .  S
C2786      F2790   1.379       .  S
C2786      F2791   1.383       .  S
C2786      F2792   1.384       .  S
C2793      C2794   1.402       .  A
C2793      C2798   1.400       .  A
C2793      H2800   1.079       .  S
C2794      C2795   1.420       .  A
C2795      C2796   1.404       .  A
C2795      C2802   1.514       .  S
C2796      C2797   1.400       .  A
C2796      H2801   1.085       .  S
C2797      C2798   1.412       .  A
C2798      C2799   1.519       .  S
C2799      F2803   1.385       .  S
C2799      F2804   1.383       .  S
C2799      F2805   1.382       .  S
C2802      F2806   1.384       .  S
C2802      F2807   1.376       .  S
C2802      F2808   1.383       .  S
C2809      C2810   1.402       .  A
C2809      C2814   1.412       .  A
C2809      H2816   1.083       .  S
C2810      C2811   1.412       .  A
C2811      C2812   1.404       .  A
C2811      C2818   1.516       .  S
C2812      C2813   1.409       .  A
C2812      H2817   1.082       .  S
C2813      C2814   1.427       .  A
C2814      C2815   1.519       .  S
C2815      F2819   1.383       .  S
C2815      F2820   1.379       .  S
C2815      F2821   1.385       .  S
C2818      F2822   1.385       .  S
C2818      F2823   1.383       .  S
C2818      F2824   1.376       .  S
C2825      C2826   1.404       .  A
C2825      C2830   1.412       .  A
C2825      H2832   1.081       .  S
C2826      C2827   1.418       .  A
C2827      C2828   1.404       .  A
C2827      C2834   1.522       .  S
C2828      C2829   1.410       .  A
C2828      H2833   1.084       .  S
C2829      C2830   1.426       .  A
C2830      C2831   1.520       .  S
C2831      F2835   1.385       .  S
C2831      F2836   1.383       .  S
C2831      F2837   1.383       .  S
C2834      F2838   1.380       .  S
C2834      F2839   1.383       .  S
C2834      F2840   1.384       .  S
C2841      C2842   1.400       .  A
C2841      C2846   1.403       .  A
C2841      H2848   1.084       .  S
C2842      C2843   1.418       .  A
C2843      C2844   1.405       .  A
C2843      C2850   1.518       .  S
C2844      C2845   1.407       .  A
C2844      H2849   1.084       .  S
C2845      C2846   1.422       .  A
C2846      C2847   1.519       .  S
C2847      F2851   1.384       .  S
C2847      F2852   1.383       .  S
C2847      F2853   1.381       .  S
C2850      F2854   1.384       .  S
C2850      F2855   1.380       .  S
C2850      F2856   1.383       .  S
C2857      C2858   1.401       .  A
C2857      C2862   1.409       .  A
C2857      H2864   1.078       .  S
C2858      C2859   1.418       .  A
C2859      C2860   1.405       .  A
C2859      C2866   1.522       .  S
C2860      C2861   1.410       .  A
C2860      H2865   1.082       .  S
C2861      C2862   1.426       .  A
C2862      C2863   1.521       .  S
C2863      F2867   1.385       .  S
C2863      F2868   1.383       .  S
C2863      F2869   1.383       .  S
C2866      F2870   1.381       .  S
C2866      F2871   1.380       .  S
C2866      F2872   1.385       .  S
C2873      C2874   1.409       .  A
C2873      C2878   1.405       .  A
C2873      H2880   1.082       .  S
C2874      C2875   1.426       .  A
C2875      C2876   1.408       .  A
C2875      C2882   1.522       .  S
C2876      C2877   1.399       .  A
C2876      H2881   1.079       .  S
C2877      C2878   1.412       .  A
C2878      C2879   1.519       .  S
C2879      F2883   1.382       .  S
C2879      F2884   1.381       .  S
C2879      F2885   1.384       .  S
C2882      F2886   1.384       .  S
C2882      F2887   1.383       .  S
C2882      F2888   1.385       .  S
C2889      C2890   1.402       .  A
C2889      C2894   1.405       .  A
C2889      H2896   1.080       .  S
C2890      C2891   1.418       .  A
C2891      C2892   1.405       .  A
C2891      C2898   1.515       .  S
C2892      C2893   1.402       .  A
C2892      H2897   1.085       .  S
C2893      C2894   1.414       .  A
C2894      C2895   1.519       .  S
C2895      F2899   1.384       .  S
C2895      F2900   1.383       .  S
C2895      F2901   1.381       .  S
C2898      F2902   1.378       .  S
C2898      F2903   1.383       .  S
C2898      F2904   1.383       .  S
C2905      C2906   1.400       .  A
C2905      C2910   1.405       .  A
C2905      H2912   1.081       .  S
C2906      C2907   1.418       .  A
C2907      C2908   1.411       .  A
C2907      C2914   1.519       .  S
C2908      C2909   1.404       .  A
C2908      H2913   1.083       .  S
C2909      C2910   1.417       .  A
C2910      C2911   1.515       .  S
C2911      F2915   1.383       .  S
C2911      F2916   1.382       .  S
C2911      F2917   1.385       .  S
C2914      F2918   1.382       .  S
C2914      F2919   1.381       .  S
C2914      F2920   1.385       .  S
C2921      C2922   1.404       .  A
C2921      C2926   1.408       .  A
C2921      H2928   1.082       .  S
C2922      C2923   1.423       .  A
C2923      C2924   1.407       .  A
C2923      C2930   1.521       .  S
C2924      C2925   1.402       .  A
C2924      H2929   1.085       .  S
C2925      C2926   1.415       .  A
C2926      C2927   1.514       .  S
C2927      F2931   1.385       .  S
C2927      F2932   1.383       .  S
C2927      F2933   1.382       .  S
C2930      F2934   1.379       .  S
C2930      F2935   1.383       .  S
C2930      F2936   1.384       .  S
C2937      C2938   1.401       .  A
C2937      C2942   1.403       .  A
C2937      H2944   1.085       .  S
C2938      C2939   1.414       .  A
C2939      C2940   1.405       .  A
C2939      C2946   1.518       .  S
C2940      C2941   1.402       .  A
C2940      H2945   1.080       .  S
C2941      C2942   1.417       .  A
C2942      C2943   1.515       .  S
C2943      F2947   1.384       .  S
C2943      F2948   1.379       .  S
C2943      F2949   1.383       .  S
C2946      F2950   1.382       .  S
C2946      F2951   1.382       .  S
C2946      F2952   1.385       .  S
C2953      C2954   1.407       .  A
C2953      C2958   1.410       .  A
C2953      H2960   1.081       .  S
C2954      C2955   1.424       .  A
C2955      C2956   1.406       .  A
C2955      C2962   1.520       .  S
C2956      C2957   1.399       .  A
C2956      H2961   1.084       .  S
C2957      C2958   1.413       .  A
C2958      C2959   1.516       .  S
C2959      F2963   1.385       .  S
C2959      F2964   1.382       .  S
C2959      F2965   1.383       .  S
C2962      F2966   1.379       .  S
C2962      F2967   1.384       .  S
C2962      F2968   1.383       .  S
C2969      C2970   1.400       .  A
C2969      C2974   1.410       .  A
C2969      H2976   1.083       .  S
C2970      C2971   1.416       .  A
C2971      C2972   1.406       .  A
C2971      C2978   1.519       .  S
C2972      C2973   1.410       .  A
C2972      H2977   1.084       .  S
C2973      C2974   1.427       .  A
C2974      C2975   1.520       .  S
C2975      F2979   1.385       .  S
C2975      F2980   1.383       .  S
C2975      F2981   1.380       .  S
C2978      F2982   1.381       .  S
C2978      F2983   1.383       .  S
C2978      F2984   1.384       .  S
C2985      C2986   1.400       .  A
C2985      C2990   1.402       .  A
C2985      H2992   1.079       .  S
C2986      C2987   1.415       .  A
C2987      C2988   1.404       .  A
C2987      C2994   1.515       .  S
C2988      C2989   1.402       .  A
C2988      H2993   1.084       .  S
C2989      C2990   1.414       .  A
C2990      C2991   1.519       .  S
C2991      F2995   1.384       .  S
C2991      F2996   1.381       .  S
C2991      F2997   1.383       .  S
C2994      F2998   1.383       .  S
C2994      F2999   1.379       .  S
C2994      F3000   1.384       .  S
C3001      C3002   1.404       .  A
C3001      C3006   1.411       .  A
C3001      H3008   1.080       .  S
C3002      C3003   1.417       .  A
C3003      C3004   1.402       .  A
C3003      C3010   1.521       .  S
C3004      C3005   1.409       .  A
C3004      H3009   1.084       .  S
C3005      C3006   1.427       .  A
C3006      C3007   1.521       .  S
C3007      F3011   1.385       .  S
C3007      F3012   1.383       .  S
C3007      F3013   1.383       .  S
C3010      F3014   1.384       .  S
C3010      F3015   1.379       .  S
C3010      F3016   1.383       .  S
C3017      C3018   1.401       .  A
C3017      C3022   1.411       .  A
C3017      H3024   1.083       .  S
C3018      C3019   1.411       .  A
C3019      C3020   1.402       .  A
C3019      C3026   1.516       .  S
C3020      C3021   1.408       .  A
C3020      H3025   1.082       .  S
C3021      C3022   1.426       .  A
C3022      C3023   1.519       .  S
C3023      F3027   1.385       .  S
C3023      F3028   1.383       .  S
C3023      F3029   1.379       .  S
C3026      F3030   1.383       .  S
C3026      F3031   1.376       .  S
C3026      F3032   1.385       .  S
C3033      C3034   1.403       .  A
C3033      C3038   1.404       .  A
C3033      H3040   1.084       .  S
C3034      C3035   1.416       .  A
C3035      C3036   1.400       .  A
C3035      C3042   1.516       .  S
C3036      C3037   1.403       .  A
C3036      H3041   1.085       .  S
C3037      C3038   1.419       .  A
C3038      C3039   1.519       .  S
C3039      F3043   1.384       .  S
C3039      F3044   1.383       .  S
C3039      F3045   1.382       .  S
C3042      F3046   1.378       .  S
C3042      F3047   1.383       .  S
C3042      F3048   1.384       .  S
C3049      C3050   1.407       .  A
C3049      C3054   1.410       .  A
C3049      H3056   1.081       .  S
C3050      C3051   1.423       .  A
C3051      C3052   1.407       .  A
C3051      C3058   1.520       .  S
C3052      C3053   1.400       .  A
C3052      H3057   1.085       .  S
C3053      C3054   1.414       .  A
C3054      C3055   1.518       .  S
C3055      F3059   1.385       .  S
C3055      F3060   1.384       .  S
C3055      F3061   1.382       .  S
C3058      F3062   1.384       .  S
C3058      F3063   1.379       .  S
C3058      F3064   1.383       .  S
C3065      C3066   1.403       .  A
C3065      C3070   1.410       .  A
C3065      H3072   1.082       .  S
C3066      C3067   1.418       .  A
C3067      C3068   1.410       .  A
C3067      C3074   1.518       .  S
C3068      C3069   1.404       .  A
C3068      H3073   1.083       .  S
C3069      C3070   1.419       .  A
C3070      C3071   1.515       .  S
C3071      F3075   1.385       .  S
C3071      F3076   1.383       .  S
C3071      F3077   1.382       .  S
C3074      F3078   1.381       .  S
C3074      F3079   1.381       .  S
C3074      F3080   1.384       .  S
C3081      C3082   1.400       .  A
C3081      C3086   1.401       .  A
C3081      H3088   1.085       .  S
C3082      C3083   1.413       .  A
C3083      C3084   1.402       .  A
C3083      C3090   1.518       .  S
C3084      C3085   1.401       .  A
C3084      H3089   1.080       .  S
C3085      C3086   1.415       .  A
C3086      C3087   1.514       .  S
C3087      F3091   1.384       .  S
C3087      F3092   1.379       .  S
C3087      F3093   1.383       .  S
C3090      F3094   1.382       .  S
C3090      F3095   1.382       .  S
C3090      F3096   1.385       .  S
C3097      C3098   1.400       .  A
C3097      C3102   1.406       .  A
C3097      H3104   1.085       .  S
C3098      C3099   1.414       .  A
C3099      C3100   1.409       .  A
C3099      C3106   1.518       .  S
C3100      C3101   1.407       .  A
C3100      H3105   1.082       .  S
C3101      C3102   1.422       .  A
C3102      C3103   1.520       .  S
C3103      F3107   1.384       .  S
C3103      F3108   1.378       .  S
C3103      F3109   1.383       .  S
C3106      F3110   1.384       .  S
C3106      F3111   1.382       .  S
C3106      F3112   1.385       .  S
C3113      C3114   1.407       .  A
C3113      C3118   1.410       .  A
C3113      H3120   1.081       .  S
C3114      C3115   1.419       .  A
C3115      C3116   1.407       .  A
C3115      C3122   1.519       .  S
C3116      C3117   1.401       .  A
C3116      H3121   1.081       .  S
C3117      C3118   1.413       .  A
C3118      C3119   1.517       .  S
C3119      F3123   1.384       .  S
C3119      F3124   1.382       .  S
C3119      F3125   1.385       .  S
C3122      F3126   1.385       .  S
C3122      F3127   1.383       .  S
C3122      F3128   1.380       .  S
C3129      C3130   1.400       .  A
C3129      C3134   1.402       .  A
C3129      H3136   1.082       .  S
C3130      C3131   1.415       .  A
C3131      C3132   1.399       .  A
C3131      C3138   1.515       .  S
C3132      C3133   1.398       .  A
C3132      H3137   1.085       .  S
C3133      C3134   1.414       .  A
C3134      C3135   1.518       .  S
C3135      F3139   1.385       .  S
C3135      F3140   1.383       .  S
C3135      F3141   1.382       .  S
C3138      F3142   1.384       .  S
C3138      F3143   1.379       .  S
C3138      F3144   1.383       .  S
C3145      C3146   1.398       .  A
C3145      C3150   1.407       .  A
C3145      H3152   1.080       .  S
C3146      C3147   1.414       .  A
C3147      C3148   1.409       .  A
C3147      C3154   1.520       .  S
C3148      C3149   1.411       .  A
C3148      H3153   1.082       .  S
C3149      C3150   1.429       .  A
C3150      C3151   1.521       .  S
C3151      F3155   1.385       .  S
C3151      F3156   1.384       .  S
C3151      F3157   1.383       .  S
C3154      F3158   1.383       .  S
C3154      F3159   1.381       .  S
C3154      F3160   1.385       .  S
C3161      C3162   1.401       .  A
C3161      C3166   1.409       .  A
C3161      H3168   1.080       .  S
C3162      C3163   1.416       .  A
C3163      C3164   1.404       .  A
C3163      C3170   1.521       .  S
C3164      C3165   1.411       .  A
C3164      H3169   1.084       .  S
C3165      C3166   1.426       .  A
C3166      C3167   1.521       .  S
C3167      F3171   1.385       .  S
C3167      F3172   1.383       .  S
C3167      F3173   1.383       .  S
C3170      F3174   1.379       .  S
C3170      F3175   1.383       .  S
C3170      F3176   1.384       .  S
C3177      C3178   1.403       .  A
C3177      C3182   1.403       .  A
C3177      H3184   1.085       .  S
C3178      C3179   1.416       .  A
C3179      C3180   1.404       .  A
C3179      C3186   1.519       .  S
C3180      C3181   1.400       .  A
C3180      H3185   1.082       .  S
C3181      C3182   1.417       .  A
C3182      C3183   1.517       .  S
C3183      F3187   1.383       .  S
C3183      F3188   1.383       .  S
C3183      F3189   1.379       .  S
C3186      F3190   1.380       .  S
C3186      F3191   1.383       .  S
C3186      F3192   1.385       .  S
C3193      C3194   1.408       .  A
C3193      C3198   1.408       .  A
C3193      H3200   1.083       .  S
C3194      C3195   1.425       .  A
C3195      C3196   1.410       .  A
C3195      C3202   1.520       .  S
C3196      C3197   1.401       .  A
C3196      H3201   1.080       .  S
C3197      C3198   1.415       .  A
C3198      C3199   1.519       .  S
C3199      F3203   1.385       .  S
C3199      F3204   1.381       .  S
C3199      F3205   1.382       .  S
C3202      F3206   1.385       .  S
C3202      F3207   1.383       .  S
C3202      F3208   1.383       .  S
C3209      C3210   1.402       .  A
C3209      C3214   1.406       .  A
C3209      H3216   1.076       .  S
C3210      C3211   1.422       .  A
C3211      C3212   1.410       .  A
C3211      C3218   1.520       .  S
C3212      C3213   1.407       .  A
C3212      H3217   1.083       .  S
C3213      C3214   1.421       .  A
C3214      C3215   1.518       .  S
C3215      F3219   1.384       .  S
C3215      F3220   1.382       .  S
C3215      F3221   1.382       .  S
C3218      F3222   1.381       .  S
C3218      F3223   1.382       .  S
C3218      F3224   1.384       .  S
C3225      C3226   1.402       .  A
C3225      C3230   1.405       .  A
C3225      H3232   1.084       .  S
C3226      C3227   1.414       .  A
C3227      C3228   1.400       .  A
C3227      C3234   1.520       .  S
C3228      C3229   1.400       .  A
C3228      H3233   1.081       .  S
C3229      C3230   1.416       .  A
C3230      C3231   1.514       .  S
C3231      F3235   1.383       .  S
C3231      F3236   1.380       .  S
C3231      F3237   1.383       .  S
C3234      F3238   1.383       .  S
C3234      F3239   1.379       .  S
C3234      F3240   1.384       .  S
C3241      C3242   1.411       .  A
C3241      C3246   1.408       .  A
C3241      H3248   1.082       .  S
C3242      C3243   1.427       .  A
C3243      C3244   1.413       .  A
C3243      C3250   1.520       .  S
C3244      C3245   1.402       .  A
C3244      H3249   1.082       .  S
C3245      C3246   1.415       .  A
C3246      C3247   1.520       .  S
C3247      F3251   1.381       .  S
C3247      F3252   1.385       .  S
C3247      F3253   1.382       .  S
C3250      F3254   1.383       .  S
C3250      F3255   1.384       .  S
C3250      F3256   1.385       .  S
C3257      C3258   1.403       .  A
C3257      C3262   1.414       .  A
C3257      H3264   1.082       .  S
C3258      C3259   1.419       .  A
C3259      C3260   1.407       .  A
C3259      C3266   1.521       .  S
C3260      C3261   1.409       .  A
C3260      H3265   1.084       .  S
C3261      C3262   1.429       .  A
C3262      C3263   1.520       .  S
C3263      F3267   1.385       .  S
C3263      F3268   1.381       .  S
C3263      F3269   1.383       .  S
C3266      F3270   1.379       .  S
C3266      F3271   1.383       .  S
C3266      F3272   1.384       .  S
C3273      C3274   1.400       .  A
C3273      C3278   1.403       .  A
C3273      H3280   1.083       .  S
C3274      C3275   1.415       .  A
C3275      C3276   1.401       .  A
C3275      C3282   1.514       .  S
C3276      C3277   1.402       .  A
C3276      H3281   1.085       .  S
C3277      C3278   1.419       .  A
C3278      C3279   1.520       .  S
C3279      F3283   1.382       .  S
C3279      F3284   1.382       .  S
C3279      F3285   1.384       .  S
C3282      F3286   1.384       .  S
C3282      F3287   1.378       .  S
C3282      F3288   1.383       .  S
C3289      C3290   1.407       .  A
C3289      C3294   1.408       .  A
C3289      H3296   1.082       .  S
C3290      C3291   1.424       .  A
C3291      C3292   1.404       .  A
C3291      C3298   1.521       .  S
C3292      C3293   1.398       .  A
C3292      H3297   1.085       .  S
C3293      C3294   1.412       .  A
C3294      C3295   1.517       .  S
C3295      F3299   1.385       .  S
C3295      F3300   1.383       .  S
C3295      F3301   1.383       .  S
C3298      F3302   1.383       .  S
C3298      F3303   1.379       .  S
C3298      F3304   1.384       .  S
C3305      C3306   1.401       .  A
C3305      C3310   1.412       .  A
C3305      H3312   1.083       .  S
C3306      C3307   1.412       .  A
C3307      C3308   1.405       .  A
C3307      C3314   1.516       .  S
C3308      C3309   1.408       .  A
C3308      H3313   1.082       .  S
C3309      C3310   1.426       .  A
C3310      C3311   1.519       .  S
C3311      F3315   1.384       .  S
C3311      F3316   1.383       .  S
C3311      F3317   1.382       .  S
C3314      F3318   1.377       .  S
C3314      F3319   1.383       .  S
C3314      F3320   1.384       .  S
C3321      C3322   1.402       .  A
C3321      C3326   1.401       .  A
C3321      H3328   1.081       .  S
C3322      C3323   1.420       .  A
C3323      C3324   1.402       .  A
C3323      C3330   1.515       .  S
C3324      C3325   1.399       .  A
C3324      H3329   1.085       .  S
C3325      C3326   1.413       .  A
C3326      C3327   1.519       .  S
C3327      F3331   1.385       .  S
C3327      F3332   1.381       .  S
C3327      F3333   1.381       .  S
C3330      F3334   1.383       .  S
C3330      F3335   1.377       .  S
C3330      F3336   1.384       .  S
C3337      C3338   1.399       .  A
C3337      C3342   1.410       .  A
C3337      H3344   1.078       .  S
C3338      C3339   1.415       .  A
C3339      C3340   1.409       .  A
C3339      C3346   1.518       .  S
C3340      C3341   1.408       .  A
C3340      H3345   1.083       .  S
C3341      C3342   1.425       .  A
C3342      C3343   1.521       .  S
C3343      F3347   1.385       .  S
C3343      F3348   1.384       .  S
C3343      F3349   1.383       .  S
C3346      F3350   1.382       .  S
C3346      F3351   1.381       .  S
C3346      F3352   1.384       .  S
C3353      C3354   1.403       .  A
C3353      C3358   1.411       .  A
C3353      H3360   1.081       .  S
C3354      C3355   1.418       .  A
C3355      C3356   1.408       .  A
C3355      C3362   1.521       .  S
C3356      C3357   1.406       .  A
C3356      H3361   1.083       .  S
C3357      C3358   1.420       .  A
C3358      C3359   1.518       .  S
C3359      F3363   1.385       .  S
C3359      F3364   1.384       .  S
C3359      F3365   1.382       .  S
C3362      F3366   1.385       .  S
C3362      F3367   1.382       .  S
C3362      F3368   1.381       .  S
C3369      C3370   1.400       .  A
C3369      C3374   1.403       .  A
C3369      H3376   1.079       .  S
C3370      C3371   1.418       .  A
C3371      C3372   1.403       .  A
C3371      C3378   1.516       .  S
C3372      C3373   1.400       .  A
C3372      H3377   1.085       .  S
C3373      C3374   1.415       .  A
C3374      C3375   1.519       .  S
C3375      F3379   1.384       .  S
C3375      F3380   1.383       .  S
C3375      F3381   1.381       .  S
C3378      F3382   1.383       .  S
C3378      F3383   1.381       .  S
C3378      F3384   1.383       .  S
