geometry optimzed in LAMMPS
_audit_creation_date              2020-11-30 
_audit_creation_method            'lammps2cif' 
_symmetry_space_group_name_H-M    'P1' 
_symmetry_Int_Tables_number       1 
_symmetry_cell_setting            triclinic 
loop_ 
_symmetry_equiv_pos_as_xyz 
  x,y,z 
_cell_length_a                    30.836809431363196 
_cell_length_b                    31.278880312546104 
_cell_length_c                    47.05555017731184 
_cell_angle_alpha                 88.73838230209601 
_cell_angle_beta                  90.84157942413209 
_cell_angle_gamma                 120.89230873414324 
loop_ 
_atom_site_label 
_atom_site_type_symbol 
_atom_site_fract_x 
_atom_site_fract_y 
_atom_site_fract_z 
_atom_site_charge 
O1          O  0.86383789  0.58260903  0.14066929    -0.79350
O2          O  0.76202283  0.65033258  0.23733460    -0.79370
O3          O  0.73152678  0.60794405  0.14481205    -0.79380
O4          O  0.91264574  0.72792407  0.18751854    -0.79320
O5          O  0.73524686  0.64539302  0.18372603    -0.79440
O6          O  0.89867248  0.67699151  0.15289325    -0.79360
O7          O  0.82629814  0.71522638  0.21828333    -0.79350
O8          O  0.80539220  0.59756571  0.12702384    -0.79380
C9          C  0.83579367  0.58385629  0.12098916     1.10340
C10         C  0.78556383  0.69624379  0.23246059     1.10230
C11         C  0.72659210  0.63993077  0.15754534     1.10360
C12         C  0.92277634  0.71999681  0.16262452     1.10240
O13         O  0.94200655  0.63560655  0.18507585    -0.79350
O14         O  0.67998048  0.56713347  0.21861270    -0.79420
O15         O  0.78207911  0.51985532  0.16977725    -0.79360
O16         O  0.82840042  0.63469860  0.25233154    -0.79340
O17         O  0.76503768  0.56343501  0.23687094    -0.79390
O18         O  0.84419911  0.55789277  0.20055770    -0.79360
O19         O  0.90142264  0.64194838  0.22006747    -0.79320
O20         O  0.70581513  0.53170804  0.18945400    -0.79390
Co21       Co  0.87168835  0.61887523  0.17774479     1.51530
Co22       Co  0.75014173  0.60203182  0.20819681     1.51690
Co23       Co  0.76027891  0.56870367  0.15971174     1.51570
Co24       Co  0.86324106  0.67735533  0.21702846     1.51470
O25         O  0.81301660  0.62632152  0.18658686    -1.41280
C26         C  0.94353997  0.65297408  0.20957312     1.10270
C27         C  0.67028038  0.53804631  0.19800905     1.10360
C28         C  0.81242912  0.51926969  0.18805758     1.10300
C29         C  0.79457835  0.58900016  0.25688190     1.10270
O30         O  0.88963766  0.78132145  0.39705257    -0.79350
O31         O  0.73088656  0.56997715  0.43347726    -0.79370
O32         O  0.78209864  0.61021951  0.38548099    -0.79380
O33         O  0.77406390  0.69787761  0.45072204    -0.79320
O34         O  0.78777145  0.54922093  0.39871345    -0.79440
O35         O  0.84404064  0.76474013  0.44311350    -0.79360
O36         O  0.73390709  0.60447176  0.47359798    -0.79350
O37         O  0.83348439  0.70774867  0.37995769    -0.79380
C38         C  0.85221074  0.75546490  0.38127980     1.10340
C39         C  0.70860944  0.57514438  0.45373175     1.10230
C40         C  0.77791962  0.57031218  0.37871445     1.10360
C41         C  0.79976742  0.74424886  0.45249048     1.10240
O42         O  0.91810374  0.75180701  0.44999895    -0.79350
O43         O  0.85982784  0.57976872  0.44580096    -0.79420
O44         O  0.92717975  0.70347884  0.39232403    -0.79360
O45         O  0.83434079  0.63848501  0.49887626    -0.79340
O46         O  0.78819632  0.56321502  0.48332347    -0.79390
O47         O  0.93822937  0.75231176  0.42694331    -0.79360
O48         O  0.86610793  0.72983923  0.48651376    -0.79320
O49         O  0.87719782  0.60318490  0.40118036    -0.79390
Co50       Co  0.86400374  0.72296455  0.42071541     1.51530
Co51       Co  0.79571427  0.57488240  0.44005051     1.51690
Co52       Co  0.85345507  0.65586563  0.39383828     1.51570
Co53       Co  0.80401429  0.66656994  0.47381426     1.51470
O54         O  0.83636799  0.65430741  0.43813232    -1.41280
C55         C  0.91021271  0.75237812  0.47643333     1.10270
C56         C  0.87949419  0.57861285  0.42314308     1.10360
C57         C  0.95685313  0.74030036  0.40698336     1.10300
C58         C  0.81651269  0.59286301  0.50249672     1.10270
O59         O  0.12822001  0.82174952  0.01710180    -0.79350
O60         O  0.29665226  0.93004319  0.03099053    -0.79370
O61         O  0.19933022  0.95447282  0.07527204    -0.79380
O62         O  0.23184249  0.80553313  0.48495648    -0.79320
O63         O  0.26844957  0.95097531  0.08142209    -0.79440
O64         O  0.15625426  0.75380551  0.50302625    -0.79360
O65         O  0.23132263  0.88687966  0.00257749    -0.79350
O66         O  0.12246868  0.87027951  0.04692313    -0.79380
C67         C  0.10337721  0.83929765  0.02701924     1.10340
C68         C  0.26814919  0.92829291  0.01022842     1.10230
C69         C  0.24467922  0.97429093  0.08429655     1.10360
C70         C  0.18957863  0.76613183  0.48316467     1.10240
O71         O  0.15660816  0.73216402  0.06242434    -0.79350
O72         O  0.25581594  0.86382494  0.10689813    -0.79420
O73         O  0.13936320  0.85226680  0.09382129    -0.79360
O74         O  0.30198580  0.85713038  0.01859007    -0.79340
O75         O  0.30032277  0.84675592  0.06355896    -0.79390
O76         O  0.09853325  0.77731176  0.07381738    -0.79360
O77         O  0.22557237  0.76602165  0.03631973    -0.79320
O78         O  0.18925143  0.87401950  0.10476088    -0.79390
Co79       Co  0.14006925  0.77670025  0.04082395     1.51530
Co80       Co  0.27594961  0.89275065  0.06920585     1.51690
Co81       Co  0.19200643  0.89235908  0.06283288     1.51570
Co82       Co  0.22666794  0.82685022  0.01894596     1.51470
O83         O  0.20600452  0.83968986  0.05437467    -1.41280
C84         C  0.19534435  0.73212952  0.05365982     1.10270
C85         C  0.22031872  0.86555658  0.11895376     1.10360
C86         C  0.10063938  0.80759169  0.09230696     1.10300
C87         C  0.32209072  0.85135157  0.04059520     1.10270
O88         O  0.12295436  0.77324601  0.30308660    -0.79350
O89         O  0.32993419  0.87009768  0.29411656    -0.79370
O90         O  0.22362208  0.91180010  0.25057183    -0.79380
O91         O  0.25398780  0.78174998  0.32187965    -0.79320
O92         O  0.28280499  0.89145841  0.25040379    -0.79440
O93         O  0.19793255  0.76314980  0.29086297    -0.79360
O94         O  0.32379586  0.86689951  0.34010746    -0.79350
O95         O  0.14550368  0.82406429  0.26623981    -0.79380
C96         C  0.11666872  0.78216853  0.27752075     1.10340
C97         C  0.34644901  0.86623935  0.31821210     1.10230
C98         C  0.24849197  0.89578660  0.23785831     1.10360
C99         C  0.22841930  0.75371189  0.30202288     1.10240
O100        O  0.16812137  0.74652721  0.35060303    -0.79350
O101        O  0.29416988  0.97461260  0.28087883    -0.79420
O102        O  0.13813660  0.86219429  0.32071967    -0.79360
O103        O  0.26283359  0.90260020  0.35556241    -0.79340
O104        O  0.32907292  0.94744671  0.32704530    -0.79390
O105        O  0.17503665  0.83519237  0.34995723    -0.79360
O106        O  0.23797956  0.80284029  0.37317897    -0.79320
O107        O  0.22406252  0.95383642  0.30383976    -0.79390
Co108      Co  0.19096026  0.80137723  0.32093586     1.51530
Co109      Co  0.30570377  0.91747782  0.28859135     1.51690
Co110      Co  0.18578470  0.88696070  0.28685327     1.51570
Co111      Co  0.25023138  0.84066271  0.33761328     1.51470
O112        O  0.23513358  0.86579708  0.30051930    -1.41280
C113        C  0.19707249  0.75970704  0.37285571     1.10270
C114        C  0.26411947  0.98641804  0.29153760     1.10360
C115        C  0.14060582  0.84437925  0.34483614     1.10300
C116        C  0.30403839  0.94237136  0.34951255     1.10270
O117        O  0.21524800  0.53557275  0.05188706    -0.79350
O118        O  0.31220984  0.42713588  0.04289292    -0.79370
O119        O  0.29633924  0.54607428  0.06977655    -0.79380
O120        O  0.22023507  0.40770584  0.50806075    -0.79320
O121        O  0.34409457  0.51237940  0.07486286    -0.79440
O122        O  0.23942128  0.48498912  0.01162896    -0.79360
O123        O  0.24319412  0.35365920  0.04003956    -0.79350
O124        O  0.21784787  0.54308713  0.09846254    -0.79380
C125        C  0.21473772  0.55908390  0.07403016     1.10340
C126        C  0.28973062  0.38251349  0.03443604     1.10230
C127        C  0.33918149  0.54968815  0.06956726     1.10360
C128        C  0.24084098  0.45184040  0.49845208     1.10240
O129        O  0.14041817  0.39249169  0.02650910    -0.79350
O130        O  0.28915053  0.44696558  0.12268661    -0.79420
O131        O  0.17219355  0.44204595  0.10862067    -0.79360
O132        O  0.17688335  0.34082204  0.08486628    -0.79340
O133        O  0.25848560  0.36756223  0.09203215    -0.79390
O134        O  0.13166447  0.43806004  0.07001205    -0.79360
O135        O  0.14126386  0.32228774  0.02767966    -0.79320
O136        O  0.26993417  0.50515105  0.12356600    -0.79390
Co137      Co  0.18886351  0.46188370  0.04228963     1.51530
Co138      Co  0.29779401  0.43992545  0.08166593     1.51690
Co139      Co  0.23229576  0.49275285  0.08793820     1.51570
Co140      Co  0.19566059  0.37785427  0.04767840     1.51470
O141        O  0.23609609  0.44186006  0.06732452    -1.41280
C142        C  0.11943016  0.34610671  0.02034243     1.10270
C143        C  0.27974130  0.47543038  0.13620485     1.10360
C144        C  0.13096807  0.42738127  0.09607707     1.10300
C145        C  0.21197582  0.33667070  0.09701407     1.10270
O146        O  0.22192892  0.54332357  0.29486281    -0.79350
O147        O  0.33763211  0.45377893  0.31326762    -0.79370
O148        O  0.28714029  0.55128018  0.34727030    -0.79380
O149        O  0.23366894  0.41122170  0.27282476    -0.79320
O150        O  0.31031321  0.52852625  0.30828120    -0.79440
O151        O  0.23022497  0.48044900  0.26345133    -0.79360
O152        O  0.26824023  0.40348025  0.28862870    -0.79350
O153        O  0.19339779  0.54119113  0.33665220    -0.79380
C154        C  0.21073373  0.56375747  0.31342354     1.10340
C155        C  0.31613628  0.42087871  0.29408804     1.10230
C156        C  0.31790348  0.56157986  0.32634877     1.10360
C157        C  0.23920747  0.44750244  0.25589194     1.10240
O158        O  0.13126758  0.40284630  0.27453736    -0.79350
O159        O  0.30859811  0.48687345  0.36234226    -0.79420
O160        O  0.14148637  0.44432227  0.35815975    -0.79360
O161        O  0.21414062  0.33143509  0.31956154    -0.79340
O162        O  0.25730971  0.39554567  0.34682108    -0.79390
O163        O  0.12024629  0.45967323  0.31499690    -0.79360
O164        O  0.14505133  0.34601114  0.29398115    -0.79320
O165        O  0.23146486  0.45406028  0.37750087    -0.79390
Co166      Co  0.17836391  0.47112761  0.28900743     1.51530
Co167      Co  0.28052755  0.46057120  0.32322864     1.51690
Co168      Co  0.21342078  0.49478449  0.35388666     1.51570
Co169      Co  0.20812017  0.39056849  0.31500546     1.51470
O170        O  0.21333231  0.45614222  0.32039071    -1.41280
C171        C  0.12072075  0.35818320  0.27727417     1.10270
C172        C  0.27764784  0.47213422  0.38281923     1.10360
C173        C  0.10828361  0.44122298  0.34040925     1.10300
C174        C  0.24422497  0.35094046  0.34038848     1.10270
O175        O  0.44197409  0.36281041  0.17499853    -0.79350
O176        O  0.40232135  0.15908223  0.16595085    -0.79370
O177        O  0.54612430  0.29985062  0.19692756    -0.79380
O178        O  0.36831481  0.22132702  0.14118242    -0.79320
O179        O  0.50410962  0.22177671  0.18144070    -0.79440
O180        O  0.42904288  0.29489394  0.13998121    -0.79360
O181        O  0.33003540  0.14958525  0.17831275    -0.79350
O182        O  0.50566904  0.35250829  0.17155525    -0.79380
C183        C  0.48817068  0.38092972  0.16966307     1.10340
C184        C  0.35424141  0.13580173  0.16354970     1.10230
C185        C  0.54510873  0.26243074  0.18584930     1.10360
C186        C  0.40482229  0.25552201  0.12768981     1.10240
O187        O  0.34012684  0.29314685  0.15979450    -0.79350
O188        O  0.47390196  0.21567941  0.24093005    -0.79420
O189        O  0.45398154  0.34681150  0.22604298    -0.79360
O190        O  0.33800413  0.20192618  0.22540152    -0.79340
O191        O  0.37639652  0.15791714  0.22539866    -0.79390
O192        O  0.37514292  0.29268882  0.21415287    -0.79360
O193        O  0.29085678  0.21417185  0.17364912    -0.79320
O194        O  0.49076351  0.29299578  0.24563121    -0.79390
Co195      Co  0.39758587  0.28814583  0.17646243     1.51530
Co196      Co  0.43910257  0.19308303  0.20227403     1.51690
Co197      Co  0.49530420  0.31890929  0.20860993     1.51570
Co198      Co  0.35741790  0.22150895  0.18418932     1.51470
O199        O  0.43412339  0.25500834  0.19369415    -1.41280
C200        C  0.29562135  0.25395855  0.16188348     1.10270
C201        C  0.48306627  0.25280209  0.25604881     1.10360
C202        C  0.40644771  0.32906909  0.22903396     1.10300
C203        C  0.34492264  0.16776701  0.23609032     1.10270
O204        O  0.49950768  0.37474056  0.42458556    -0.79350
O205        O  0.41698625  0.12704333  0.43401943    -0.79370
O206        O  0.52894154  0.29133777  0.44101985    -0.79380
O207        O  0.40894177  0.23889152  0.37815071    -0.79320
O208        O  0.50858185  0.21293622  0.45052126    -0.79440
O209        O  0.48550431  0.28765804  0.39509212    -0.79360
O210        O  0.40592365  0.16046145  0.39605588    -0.79350
O211        O  0.51780227  0.36164609  0.46843561    -0.79380
C212        C  0.52484615  0.39201026  0.44790081     1.10340
C213        C  0.40437142  0.12429733  0.40845920     1.10230
C214        C  0.53873153  0.25648362  0.44008845     1.10360
C215        C  0.45632975  0.26396225  0.37459519     1.10240
O216        O  0.39830834  0.29961955  0.40194359    -0.79350
O217        O  0.44381216  0.20450944  0.50051039    -0.79420
O218        O  0.42181353  0.28731036  0.48843200    -0.79360
O219        O  0.32221007  0.12985983  0.43409163    -0.79340
O220        O  0.36573308  0.15283808  0.47334905    -0.79390
O221        O  0.41021357  0.31856908  0.45138383    -0.79360
O222        O  0.33179511  0.22703437  0.41542776    -0.79320
O223        O  0.50194157  0.28130183  0.49880592    -0.79390
Co224      Co  0.45207538  0.30102220  0.42724375     1.51530
Co225      Co  0.43546992  0.18004582  0.46230179     1.51690
Co226      Co  0.47330986  0.29011892  0.46246799     1.51570
Co227      Co  0.36929485  0.19160506  0.40899031     1.51470
O228        O  0.42013603  0.22860311  0.44153190    -1.41280
C229        C  0.35030198  0.27028967  0.40372400     1.10270
C230        C  0.47157503  0.24372986  0.51315945     1.10360
C231        C  0.40070657  0.30770628  0.47698909     1.10300
C232        C  0.33186137  0.11910992  0.45888571     1.10270
O233        O  0.62864343  0.73748228  0.07737968    -0.79350
O234        O  0.53854746  0.86605892  0.06409210    -0.79370
O235        O  0.68402429  0.88157519  0.11321446    -0.79380
O236        O  0.52866920  0.78362519  0.05548312    -0.79320
O237        O  0.60290180  0.85843331  0.10984500    -0.79440
O238        O  0.56244786  0.73978255  0.04906041    -0.79360
O239        O  0.52584097  0.84752840  0.01779710    -0.79350
O240        O  0.69634725  0.80797013  0.09070782    -0.79380
C241        C  0.66890945  0.75975798  0.09153726     1.10340
C242        C  0.51202934  0.85759027  0.04072223     1.10230
C243        C  0.64060010  0.86445672  0.12466004     1.10360
C244        C  0.52392265  0.74128849  0.05402238     1.10240
O245        O  0.62728426  0.77622695  0.02085758    -0.79350
O246        O  0.68304357  0.95355538  0.09092042    -0.79420
O247        O  0.74020001  0.86865571  0.03953502    -0.79360
O248        O  0.62504493  0.90266571  0.00828740    -0.79340
O249        O  0.62948721  0.94964620  0.04302205    -0.79390
O250        O  0.67409824  0.79341854  0.03337965    -0.79360
O251        O  0.57919715  0.80307237  0.00098996    -0.79320
O252        O  0.73474244  0.94684033  0.06292564    -0.79390
Co253      Co  0.62704473  0.79250234  0.06311248     1.51530
Co254      Co  0.61545810  0.90140310  0.07544488     1.51690
Co255      Co  0.70843033  0.87621678  0.07440391     1.51570
Co256      Co  0.58090460  0.84490042  0.03241125     1.51470
O257        O  0.63947251  0.85753779  0.05427516    -1.41280
C258        C  0.60353056  0.78382427  0.50032061     1.10270
C259        C  0.72627354  0.97234629  0.07977928     1.10360
C260        C  0.72059528  0.82614023  0.02840921     1.10300
C261        C  0.63402723  0.94439173  0.01676984     1.10270
O262        O  0.68889937  0.78913090  0.33312629    -0.79350
O263        O  0.62513976  0.93080860  0.33109500    -0.79370
O264        O  0.75474217  0.94266940  0.29362424    -0.79380
O265        O  0.64308597  0.81727475  0.37442850    -0.79320
O266        O  0.68114567  0.93948439  0.28914471    -0.79440
O267        O  0.59826848  0.74227386  0.36192204    -0.79360
O268        O  0.65510805  0.90399150  0.36469186    -0.79350
O269        O  0.72866530  0.87135421  0.34079208    -0.79380
C270        C  0.72476826  0.82845795  0.34434945     1.10340
C271        C  0.65731896  0.93991635  0.35095274     1.10230
C272        C  0.72954182  0.96373241  0.28685940     1.10360
C273        C  0.62118381  0.77286724  0.38159910     1.10240
O274        O  0.54915653  0.74321471  0.31013860    -0.79350
O275        O  0.59629774  0.84669503  0.26278972    -0.79420
O276        O  0.71958422  0.83804267  0.28667536    -0.79360
O277        O  0.54857772  0.85873945  0.34965822    -0.79340
O278        O  0.53814725  0.83688513  0.30600800    -0.79390
O279        O  0.64150920  0.77657599  0.27980993    -0.79360
O280        O  0.53519921  0.76619871  0.35202954    -0.79320
O281        O  0.67627376  0.87474021  0.26240912    -0.79390
Co282      Co  0.61892769  0.76664834  0.32022653     1.51530
Co283      Co  0.60949122  0.88336827  0.29837431     1.51690
Co284      Co  0.69723297  0.87953346  0.30490303     1.51570
Co285      Co  0.59805849  0.83656066  0.35847298     1.51470
O286        O  0.62765453  0.83636017  0.31995393    -1.41280
C287        C  0.51908418  0.73829227  0.32985644     1.10270
C288        C  0.63492114  0.85716089  0.24896781     1.10360
C289        C  0.68891175  0.79709338  0.27516972     1.10300
C290        C  0.52150695  0.84607244  0.32756991     1.10270
O291        O  0.82467384  0.32090089  0.19601934    -0.79350
O292        O  0.75786713  0.14756006  0.20647609    -0.79370
O293        O  0.75421563  0.26667422  0.14668090    -0.79380
O294        O  0.85270196  0.21036849  0.22920850    -0.79320
O295        O  0.72435332  0.21248611  0.18364215    -0.79440
O296        O  0.82427884  0.25996158  0.23117189    -0.79360
O297        O  0.82061896  0.13879464  0.19416018    -0.79350
O298        O  0.85068061  0.34672352  0.15364949    -0.79380
C299        C  0.83453959  0.35209969  0.17672673     1.10340
C300        C  0.78281180  0.12547511  0.20957496     1.10230
C301        C  0.72262209  0.24513402  0.16754871     1.10360
C302        C  0.82997352  0.22749553  0.24281850     1.10240
O303        O  0.92719003  0.27811188  0.21009270    -0.79350
O304        O  0.72979990  0.18345483  0.12863608    -0.79420
O305        O  0.89589148  0.29534592  0.13127307    -0.79360
O306        O  0.86495346  0.18878861  0.14545747    -0.79340
O307        O  0.78061813  0.13690588  0.14815722    -0.79390
O308        O  0.92269173  0.33859063  0.17057020    -0.79360
O309        O  0.92290845  0.20748551  0.19664199    -0.79320
O310        O  0.80598892  0.22235438  0.11449753    -0.79390
Co311      Co  0.87000445  0.29500510  0.20015856     1.51530
Co312      Co  0.75253773  0.17411920  0.16813980     1.51690
Co313      Co  0.82647014  0.27934548  0.13822752     1.51570
Co314      Co  0.86492781  0.20994427  0.18524714     1.51470
O315        O  0.82282064  0.23752292  0.17310568    -1.41280
C316        C  0.94624588  0.24929837  0.20910333     1.10270
C317        C  0.76046085  0.20107723  0.10830977     1.10360
C318        C  0.93185456  0.32656271  0.14659637     1.10300
C319        C  0.82391094  0.14942617  0.13758419     1.10270
O320        O  0.88004219  0.37310174  0.45935272    -0.79350
O321        O  0.71070746  0.16215870  0.45504336    -0.79370
O322        O  0.75908861  0.29027827  0.38903077    -0.79380
O323        O  0.81469432  0.21516797  0.98430207    -0.79320
O324        O  0.71855842  0.24331584  0.42582450    -0.79440
O325        O  0.80453593  0.27440933  0.48082759    -0.79360
O326        O  0.76476361  0.13614369  0.45585823    -0.79350
O327        O  0.82293945  0.34918356  0.42619645    -0.79380
C328        C  0.85753898  0.38493222  0.44079982     1.10340
C329        C  0.72233505  0.12999495  0.46236718     1.10230
C330        C  0.72192190  0.27293100  0.40643694     1.10360
C331        C  0.79396459  0.23935804  0.99180766     1.10240
O332        O  0.90093673  0.29858296  0.46766049    -0.79350
O333        O  0.74647615  0.21015264  0.37339534    -0.79420
O334        O  0.86860358  0.35176785  0.37703474    -0.79360
O335        O  0.82358957  0.16268005  0.40688754    -0.79340
O336        O  0.74134459  0.13633279  0.40499786    -0.79390
O337        O  0.90183456  0.33329471  0.41415913    -0.79360
O338        O  0.90398861  0.24606564  0.43951618    -0.79320
O339        O  0.82868301  0.25218428  0.37506845    -0.79390
Co340      Co  0.84797893  0.30403496  0.44692436     1.51530
Co341      Co  0.73272560  0.19180386  0.41605006     1.51690
Co342      Co  0.82642631  0.29654456  0.40187046     1.51570
Co343      Co  0.83047708  0.19471606  0.44514524     1.51470
O344        O  0.80442028  0.23832426  0.42918627    -1.41280
C345        C  0.92455807  0.27849311  0.45877711     1.10270
C346        C  0.78906469  0.22519147  0.36139315     1.10360
C347        C  0.90695570  0.35383886  0.38922778     1.10300
C348        C  0.77876006  0.13325000  0.39713151     1.10270
C349        C  0.85381319  0.22905148  0.29309294     0.24390
C350        C  0.81554385  0.21508147  0.27286433    -0.23720
C351        C  0.76644426  0.20055858  0.28193601     0.19290
C352        C  0.75630385  0.20110780  0.31092673     0.24330
C353        C  0.79520459  0.21587911  0.33123624    -0.23670
C354        C  0.84370282  0.22800435  0.32186210     0.19230
F355        F  0.88298693  0.24262731  0.34030507    -0.13620
F356        F  0.90255252  0.25026436  0.28485771    -0.15990
F357        F  0.70948792  0.19018455  0.31881284    -0.15990
F358        F  0.72918551  0.18902800  0.26253221    -0.13620
C359        C  0.75012675  0.17748831  0.03147642     0.24390
C360        C  0.76899876  0.22614871  0.02014311    -0.23720
C361        C  0.77143462  0.26275536  0.03801990     0.19290
C362        C  0.76144764  0.25240722  0.06719322     0.24330
C363        C  0.74670514  0.20482650  0.07863720    -0.23670
C364        C  0.73704635  0.16660099  0.06016244     0.19230
F365        F  0.72133592  0.12012869  0.07060758    -0.13620
F366        F  0.74925960  0.14146087  0.01554007    -0.15990
F367        F  0.77145736  0.29027768  0.08478310    -0.15990
F368        F  0.78959397  0.31003670  0.02816516    -0.13620
C369        C  0.73846909  0.00283196  0.37608411     0.24390
C370        C  0.69592313  0.99205434  0.35891011    -0.23720
C371        C  0.69016768  0.03176827  0.34983651     0.19290
C372        C  0.72424665  0.08017869  0.35840280     0.24330
C373        C  0.76375961  0.09065016  0.37788262    -0.23670
C374        C  0.77173846  0.05161618  0.38571598     0.19230
F375        F  0.80805259  0.05940050  0.40506396    -0.13620
F376        F  0.74640439  0.96577458  0.38491261    -0.15990
F377        F  0.71343052  0.11575597  0.35102361    -0.15990
F378        F  0.64847270  0.02343346  0.33505113    -0.13620
C379        C  0.72041043  0.03464421  0.27023491     0.24390
C380        C  0.75129489  0.01339795  0.27324970    -0.23720
C381        C  0.79647541  0.03452770  0.25806962     0.19290
C382        C  0.80784922  0.07255655  0.23812768     0.24330
C383        C  0.77372588  0.08963353  0.23291444    -0.23670
C384        C  0.73130543  0.07192079  0.25017299     0.19230
F385        F  0.69840735  0.08828281  0.24658045    -0.13620
F386        F  0.67667501  0.01635838  0.28484037    -0.15990
F387        F  0.85144411  0.09108351  0.22323680    -0.15990
F388        F  0.82762278  0.01594652  0.26079622    -0.13620
C389        C  0.78404877  0.06560274  0.07580648     0.24390
C390        C  0.76783182  0.02033912  0.09058537    -0.23720
C391        C  0.78529389  0.02159712  0.11843971     0.19290
C392        C  0.81327637  0.06683726  0.13247477     0.24330
C393        C  0.82368782  0.11175063  0.11909708    -0.23670
C394        C  0.81227785  0.11122117  0.09000976     0.19230
F395        F  0.82414157  0.15440218  0.07624557    -0.13620
F396        F  0.76863518  0.06541757  0.04862253    -0.15990
F397        F  0.82418744  0.06599939  0.16046705    -0.15990
F398        F  0.77114503  0.97853597  0.13303166    -0.13620
C399        C  0.65574580  0.98203622  0.96728535     0.24390
C400        C  0.64638906  0.98582402  0.99613025    -0.23720
C401        C  0.64581683  0.02860020  0.00460422     0.19290
C402        C  0.65826463  0.06788195  0.98530248     0.24330
C403        C  0.68666291  0.08117673  0.47549303    -0.23670
C404        C  0.68518382  0.03903375  0.46426846     0.19230
F405        F  0.70439264  0.04128674  0.43814089    -0.13620
F406        F  0.66930772  0.95682425  0.46905801    -0.15990
F407        F  0.65852093  0.10906051  0.99405737    -0.15990
F408        F  0.63415370  0.03309238  0.03166269    -0.13620
C409        C  0.66108094  0.79794736  0.42883674     0.24390
C410        C  0.62024206  0.76190658  0.41256592    -0.23720
C411        C  0.57564202  0.72695744  0.42677657     0.19290
C412        C  0.57084911  0.73110409  0.45627058     0.24330
C413        C  0.61024966  0.77058685  0.47148670    -0.23670
C414        C  0.65509781  0.80356290  0.45746197     0.19230
F415        F  0.69065152  0.84535787  0.47055538    -0.13620
F416        F  0.70509674  0.83222215  0.41618194    -0.15990
F417        F  0.52662584  0.69913333  0.46945350    -0.15990
F418        F  0.53533709  0.69220363  0.41183976    -0.13620
C419        C  0.68035430  0.86951712  0.17273532     0.24390
C420        C  0.63662325  0.85667578  0.15640704    -0.23720
C421        C  0.59079375  0.83950606  0.17109966     0.19290
C422        C  0.58941310  0.83741954  0.20108750     0.24330
C423        C  0.63390269  0.85291391  0.21722423    -0.23670
C424        C  0.67911411  0.86834091  0.20242470     0.19230
F425        F  0.72334942  0.88458319  0.21657519    -0.13620
F426        F  0.72551362  0.88501963  0.16016975    -0.15990
F427        F  0.54466501  0.82164828  0.21423234    -0.15990
F428        F  0.54729360  0.82557806  0.15657789    -0.13620
C429        C  0.63286772  0.31058888  0.43210732     0.24390
C430        C  0.58651414  0.26678461  0.42633068    -0.23720
C431        C  0.58641152  0.23205694  0.40782512     0.19290
C432        C  0.63178930  0.23951946  0.39665207     0.24330
C433        C  0.67864168  0.28088084  0.40452742    -0.23670
C434        C  0.67855987  0.31709294  0.42174126     0.19230
F435        F  0.72298025  0.35595133  0.43109044    -0.13620
F436        F  0.63443893  0.34482215  0.45000683    -0.15990
F437        F  0.63051213  0.20314534  0.38077287    -0.15990
F438        F  0.54241578  0.18980025  0.40135731    -0.13620
C439        C  0.65908416  0.26892698  0.14955174     0.24390
C440        C  0.68023178  0.25493095  0.17215829    -0.23720
C441        C  0.65783060  0.24667791  0.19925068     0.19290
C442        C  0.61558705  0.25154850  0.20350862     0.24330
C443        C  0.59358075  0.26384405  0.18084716    -0.23670
C444        C  0.61589432  0.27277417  0.15380926     0.19230
F445        F  0.59530678  0.28418955  0.13138951    -0.13620
F446        F  0.67856378  0.27646305  0.12299188    -0.15990
F447        F  0.59498566  0.24262696  0.22985877    -0.15990
F448        F  0.67703611  0.23409576  0.22190237    -0.13620
C449        C  0.44373094  0.27654863  0.32488751     0.24390
C450        C  0.47298180  0.26879629  0.34502069    -0.23720
C451        C  0.50608166  0.25329697  0.33587330     0.19290
C452        C  0.50909217  0.24524228  0.30670109     0.24450
C453        C  0.47747972  0.25081994  0.28706562    -0.23670
C454        C  0.44453442  0.26595284  0.29672778     0.19230
F455        F  0.41252336  0.27052264  0.27847904    -0.13620
F456        F  0.41168671  0.29185277  0.33285867    -0.15990
F457        F  0.54257831  0.23258765  0.29774095    -0.15990
F458        F  0.53392886  0.24454520  0.35505442    -0.13620
C459        C  0.38647864  0.25118841  0.07683537     0.24390
C460        C  0.41758296  0.25167708  0.09863505    -0.23720
C461        C  0.46437855  0.25639862  0.09225681     0.19290
C462        C  0.47844715  0.25769571  0.06387867     0.24330
C463        C  0.44601535  0.25521444  0.04198797    -0.23670
C464        C  0.40037445  0.25293792  0.04884230     0.19230
F465        F  0.36760736  0.24992458  0.02829435    -0.13620
F466        F  0.34299956  0.25012238  0.08264535    -0.15990
F467        F  0.52174039  0.25842489  0.05788133    -0.15990
F468        F  0.49562497  0.25860056  0.11352359    -0.13620
C469        C  0.37775521  0.64965325  0.34349887     0.24390
C470        C  0.36691511  0.61011376  0.32517953    -0.23720
C471        C  0.40577546  0.61524998  0.30741330     0.19290
C472        C  0.45412778  0.65709083  0.30872612     0.24330
C473        C  0.46576932  0.69599012  0.32766205    -0.23670
C474        C  0.42665589  0.69217082  0.34468772     0.19230
F475        F  0.43568967  0.72925150  0.36265992    -0.13620
F476        F  0.34131600  0.64704447  0.36055231    -0.15990
F477        F  0.49021840  0.65781011  0.29215829    -0.15990
F478        F  0.39825773  0.57852986  0.28951359    -0.13620
C479        C  0.27149259  0.25554603  0.37667055     0.24390
C480        C  0.31804155  0.28781635  0.39021837    -0.23720
C481        C  0.33831878  0.33940351  0.38735650     0.19290
C482        C  0.31460767  0.35850388  0.37060334     0.24330
C483        C  0.26784770  0.32694094  0.35712686    -0.23670
C484        C  0.24648979  0.27502200  0.36025245     0.19230
F485        F  0.20197835  0.24332053  0.34734181    -0.13620
F486        F  0.25134034  0.20547932  0.37828936    -0.15990
F487        F  0.33874798  0.40882168  0.36730119    -0.15990
F488        F  0.38239377  0.37218891  0.40040156    -0.13620
C489        C  0.31851672  0.37113199  0.25366560     0.24390
C490        C  0.34293048  0.40079108  0.27751900    -0.23720
C491        C  0.39017441  0.40703944  0.28573585     0.19290
C492        C  0.41170237  0.38386253  0.27046637     0.24330
C493        C  0.38659468  0.35459386  0.24658300    -0.23670
C494        C  0.34090884  0.35047895  0.23810899     0.19230
F495        F  0.31825621  0.32759500  0.21367158    -0.13620
F496        F  0.27269402  0.36224054  0.24456019    -0.15990
F497        F  0.45634182  0.38934003  0.27929832    -0.15990
F498        F  0.41466047  0.43398119  0.30899218    -0.13620
C499        C  0.99293946  0.25222013  0.25352052     0.24390
C500        C  0.99388709  0.26507397  0.22459096    -0.23720
C501        C  0.03973577  0.30104118  0.21242176     0.19290
C502        C  0.08265570  0.32730026  0.22950717     0.24330
C503        C  0.07966851  0.32041995  0.25921707    -0.23670
C504        C  0.03516511  0.28081325  0.27102057     0.19230
F505        F  0.03153568  0.27193046  0.29950942    -0.13620
F506        F  0.95050479  0.21333086  0.26492875    -0.15990
F507        F  0.12705613  0.36008914  0.21705764    -0.15990
F508        F  0.04240731  0.31210486  0.18420367    -0.13620
C509        C  0.98958112  0.35795021  0.38275546     0.24390
C510        C  0.95703304  0.37547575  0.37479941    -0.23720
C511        C  0.97335640  0.41278609  0.35341575     0.19290
C512        C  0.02187513  0.43337714  0.34130933     0.24330
C513        C  0.05494760  0.41708114  0.35043574    -0.23670
C514        C  0.03758816  0.37849213  0.37091990     0.19230
F515        F  0.06711363  0.35998662  0.37947103    -0.13620
F516        F  0.97484791  0.31991273  0.40182728    -0.15990
F517        F  0.03718663  0.47060875  0.32158468    -0.15990
F518        F  0.94319353  0.43051801  0.34491354    -0.13620
C519        C  0.38359158  0.64272746  0.05862784     0.24390
C520        C  0.38563331  0.59917700  0.06437962    -0.23720
C521        C  0.43341292  0.60385637  0.06720938     0.19290
C522        C  0.47742967  0.65004566  0.06451879     0.24330
C523        C  0.47567794  0.69350394  0.05851413    -0.23670
C524        C  0.42824393  0.68943088  0.05570888     0.19230
F525        F  0.42497187  0.73031803  0.04967382    -0.13620
F526        F  0.33856699  0.64040911  0.05587882    -0.15990
F527        F  0.52212884  0.65189864  0.06830131    -0.15990
F528        F  0.43825478  0.56380433  0.07315657    -0.13620
C529        C  0.23905375  0.24082317  0.12043334     0.24390
C530        C  0.25183322  0.25504507  0.14883846    -0.23720
C531        C  0.23127608  0.28109400  0.16152529     0.19290
C532        C  0.20753853  0.30103664  0.14482035     0.24330
C533        C  0.20275111  0.29399555  0.11532789    -0.23670
C534        C  0.21456855  0.26003715  0.10378939     0.19230
F535        F  0.21001026  0.25205847  0.07536330    -0.13620
F536        F  0.25488563  0.21251190  0.10802895    -0.15990
F537        F  0.19582763  0.33297217  0.15675211    -0.15990
F538        F  0.23633513  0.28965780  0.18974064    -0.13620
C539        C  0.31815789  0.29964474  0.48856774     0.24390
C540        C  0.37048612  0.32310189  0.49275006    -0.23720
C541        C  0.39515553  0.36529815  0.50981946     0.19290
C542        C  0.37041063  0.38633917  0.02173433     0.24330
C543        C  0.31759616  0.36360931  0.01875233    -0.23670
C544        C  0.29047921  0.31767963  0.50183341     0.19230
F545        F  0.23970605  0.29362548  0.49767444    -0.13620
F546        F  0.29396585  0.25940743  0.47156246    -0.15990
F547        F  0.39678045  0.42585279  0.03902782    -0.15990
F548        F  0.44605875  0.38912659  0.51345762    -0.13620
C549        C  0.28043960  0.43159669  0.42714323     0.24390
C550        C  0.29240229  0.47579992  0.41269299    -0.23720
C551        C  0.29787773  0.51625967  0.42810400     0.19290
C552        C  0.28541206  0.51039601  0.45702407     0.24330
C553        C  0.26736275  0.46381015  0.47073985    -0.23670
C554        C  0.26879531  0.42578145  0.45591847     0.19230
F555        F  0.25342249  0.38060330  0.46819128    -0.13620
F556        F  0.27241071  0.39124542  0.41260069    -0.15990
F557        F  0.28655331  0.54873167  0.47069633    -0.15990
F558        F  0.30872516  0.55921412  0.41432110    -0.13620
C559        C  0.22904895  0.46531549  0.17821608     0.24390
C560        C  0.27296548  0.46948207  0.16713143    -0.23720
C561        C  0.30731685  0.46595798  0.18562263     0.19290
C562        C  0.29746086  0.45862770  0.21499686     0.24330
C563        C  0.25144062  0.45084637  0.22553691    -0.23670
C564        C  0.21842898  0.45603797  0.20681909     0.19230
F565        F  0.17644357  0.45473230  0.21654822    -0.13620
F566        F  0.19570541  0.47006855  0.16135312    -0.15990
F567        F  0.33448911  0.46406988  0.23301969    -0.15990
F568        F  0.35140131  0.47259983  0.17552035    -0.13620
C569        C  0.98906668  0.32250094  0.00383245     0.24390
C570        C  0.97382901  0.29220585  0.47301389    -0.23720
C571        C  0.00522823  0.27379616  0.46496289     0.19290
C572        C  0.05118722  0.28839808  0.47967454     0.24330
C573        C  0.06793375  0.32242261  0.00765929    -0.23670
C574        C  0.03636074  0.34013636  0.01600158     0.19230
F575        F  0.05119352  0.37533958  0.03618462    -0.13620
F576        F  0.96090199  0.34126370  0.01335942    -0.15990
F577        F  0.08155074  0.27169582  0.47095940    -0.15990
F578        F  0.99199600  0.24244764  0.44276580    -0.13620
C579        C  0.07052434  0.42286352  0.13264478     0.24390
C580        C  0.08237295  0.39977309  0.11134729    -0.23720
C581        C  0.04589631  0.35142467  0.10315572     0.19290
C582        C  0.99745096  0.32733729  0.11503081     0.24330
C583        C  0.98451447  0.35108915  0.13557073    -0.23670
C584        C  0.02210365  0.39872975  0.14474919     0.19230
F585        F  0.01144391  0.42302350  0.16446637    -0.13620
F586        F  0.10507432  0.46983671  0.14070716    -0.15990
F587        F  0.96326383  0.28056325  0.10645981    -0.15990
F588        F  0.05736494  0.32732707  0.08372511    -0.13620
C589        C  0.40821387  0.84711442  0.29698073     0.24390
C590        C  0.38970204  0.85864505  0.32092200    -0.23720
C591        C  0.41289789  0.86269204  0.34756088     0.19290
C592        C  0.45471972  0.85690291  0.34998821     0.24330
C593        C  0.47405559  0.84670248  0.32587936    -0.23670
C594        C  0.44957583  0.84074266  0.29945750     0.19230
F595        F  0.46629683  0.83004825  0.27563492    -0.13620
F596        F  0.38646188  0.84199968  0.27099570    -0.15990
F597        F  0.47671425  0.86224562  0.37591000    -0.15990
F598        F  0.39612478  0.87361246  0.37127362    -0.13620
C599        C  0.26212128  0.65390115  0.29956649     0.24390
C600        C  0.21546680  0.61212133  0.30742715    -0.23720
C601        C  0.17270740  0.61654582  0.30935720     0.19290
C602        C  0.17668868  0.66248105  0.30439746     0.24330
C603        C  0.22400785  0.70519309  0.29863404    -0.23670
C604        C  0.26670026  0.70064180  0.29606690     0.19230
F605        F  0.31271217  0.74142320  0.29086006    -0.13620
F606        F  0.30354977  0.64986630  0.29660356    -0.15990
F607        F  0.13490586  0.66598949  0.30758996    -0.15990
F608        F  0.12712637  0.57638034  0.31635461    -0.13620
C609        C  0.32160622  0.07795758  0.29451404     0.24390
C610        C  0.27473192  0.03788448  0.28628423    -0.23720
C611        C  0.24485748  0.04701928  0.26696905     0.19290
C612        C  0.26451669  0.09423438  0.25359151     0.24330
C613        C  0.31417422  0.13289854  0.25946564    -0.23670
C614        C  0.34071957  0.12482654  0.28155566     0.19230
F615        F  0.38903101  0.15986513  0.28731290    -0.13620
F616        F  0.35174062  0.07032312  0.31263953    -0.15990
F617        F  0.23816416  0.09969581  0.23188776    -0.15990
F618        F  0.19958343  0.00869251  0.25819912    -0.13620
C619        C  0.33164717  0.06067096  0.38162875     0.24390
C620        C  0.37887261  0.07634798  0.39450412    -0.23720
C621        C  0.39829243  0.04453862  0.39553152     0.19290
C622        C  0.37216662  0.99873364  0.38199360     0.24330
C623        C  0.32546800  0.98377872  0.36878804    -0.23670
C624        C  0.30453477  0.01405294  0.36951393     0.19230
F625        F  0.25932205  0.99981263  0.35694405    -0.13620
F626        F  0.31167749  0.09056736  0.38068825    -0.15990
F627        F  0.39284088  0.96952969  0.38102582    -0.15990
F628        F  0.44331545  0.05880213  0.40836937    -0.13620
C629        C  0.38577693  0.83572138  0.06454281     0.24390
C630        C  0.36969505  0.85091207  0.04011599    -0.23720
C631        C  0.40073901  0.86779977  0.01596113     0.19290
C632        C  0.44706690  0.86996790  0.01632610     0.24330
C633        C  0.46327699  0.85540023  0.04084201    -0.23670
C634        C  0.43229432  0.83827129  0.06492678     0.19230
F635        F  0.44642173  0.82286307  0.08863514    -0.13620
F636        F  0.35644568  0.81807956  0.08813169    -0.15990
F637        F  0.47688843  0.88789759  0.99292759    -0.15990
F638        F  0.38708590  0.88358287  0.99222192    -0.13620
C639        C  0.22134415  0.67262665  0.03907085     0.24390
C640        C  0.20362096  0.69034051  0.06057011    -0.23720
C641        C  0.19193274  0.66611468  0.08729243     0.19290
C642        C  0.19737791  0.62454554  0.09223589     0.24330
C643        C  0.21356847  0.60590152  0.07028964    -0.23670
C644        C  0.22598834  0.63098748  0.04376790     0.19230
F645        F  0.24217507  0.61499651  0.02197314    -0.13620
F646        F  0.22797591  0.69152666  0.51325132    -0.15990
F647        F  0.18510216  0.60159754  0.11815802    -0.15990
F648        F  0.17539553  0.68270393  0.10858105    -0.13620
C649        C  0.25209858  0.97961468  0.47744939     0.24390
C650        C  0.28603352  0.97424678  0.49577602    -0.23720
C651        C  0.33483615  0.01510918  0.49932337     0.19290
C652        C  0.34874667  0.06065225  0.48660892     0.24330
C653        C  0.31440936  0.06760002  0.46961558    -0.23670
C654        C  0.26639966  0.02605268  0.46429998     0.19230
F655        F  0.23293276  0.03071428  0.44743811    -0.13620
F656        F  0.20466919  0.94057555  0.47299450    -0.15990
F657        F  0.39695639  0.09823030  0.49114329    -0.15990
F658        F  0.34247833  0.02365848  0.02925727    -0.13620
C659        C  0.24534672  0.03253524  0.12078365     0.24390
C660        C  0.27119424  0.02124519  0.10081207    -0.23720
C661        C  0.32464954  0.04948925  0.10099098     0.19290
C662        C  0.35146227  0.08682814  0.12090959     0.24330
C663        C  0.32584411  0.09642435  0.14189233    -0.23670
C664        C  0.27220027  0.06925994  0.14122730     0.19230
F665        F  0.24528003  0.07688812  0.16095523    -0.13620
F666        F  0.19410374  0.00567664  0.12189145    -0.15990
F667        F  0.40272463  0.11298914  0.11979084    -0.15990
F668        F  0.35158644  0.03964984  0.08253480    -0.13620
C669        C  0.22197672  0.73688194  0.44524723     0.24390
C670        C  0.18029452  0.73590740  0.45779619    -0.23720
C671        C  0.13591452  0.71919783  0.44177883     0.19290
C672        C  0.13734638  0.71427844  0.41232580     0.24330
C673        C  0.18361291  0.72903435  0.39908251    -0.23670
C674        C  0.22364096  0.73356250  0.41587543     0.19230
F675        F  0.26759769  0.74372041  0.40358087    -0.13620
F676        F  0.26419133  0.74913559  0.46074520    -0.15990
F677        F  0.09574070  0.70203975  0.39660989    -0.15990
F678        F  0.09400835  0.71499537  0.45365625    -0.13620
C679        C  0.21270248  0.90372239  0.19201323     0.24390
C680        C  0.23810748  0.88439465  0.20773675    -0.23720
C681        C  0.25177166  0.85310744  0.19456543     0.19290
C682        C  0.24214731  0.84320682  0.16574351     0.24330
C683        C  0.21892019  0.86457423  0.14986559    -0.23670
C684        C  0.20354409  0.89418116  0.16336245     0.19230
F685        F  0.18199529  0.91637310  0.14859680    -0.13620
F686        F  0.19862250  0.93393652  0.20390604    -0.15990
F687        F  0.25717410  0.81429296  0.15316010    -0.15990
F688        F  0.27478063  0.83247134  0.20941715    -0.13620
C689        C  0.57845005  0.48069239  0.42947054     0.24390
C690        C  0.56427666  0.44536435  0.45175443    -0.23720
C691        C  0.59253401  0.46016181  0.47742791     0.19290
C692        C  0.63672687  0.50657667  0.47942614     0.24330
C693        C  0.65404397  0.53912610  0.45593264    -0.23670
C694        C  0.62326309  0.52712830  0.43150188     0.19230
F695        F  0.63881280  0.55889219  0.40873961    -0.13620
F696        F  0.55114820  0.46920227  0.40501070    -0.15990
F697        F  0.66602170  0.51674599  0.50305069    -0.15990
F698        F  0.58030435  0.42829774  0.50002973    -0.13620
C699        C  0.91067245  0.52630678  0.44673049     0.24390
C700        C  0.89051917  0.53708772  0.42219196    -0.23720
C701        C  0.86362850  0.49822260  0.40291763     0.19290
C702        C  0.85329457  0.44957986  0.40909935     0.24330
C703        C  0.87033798  0.43790204  0.43463125    -0.23670
C704        C  0.90119376  0.47771608  0.45271691     0.19230
F705        F  0.92011017  0.46932347  0.47702246    -0.13620
F706        F  0.93645140  0.56232558  0.46618784    -0.15990
F707        F  0.82495043  0.41349734  0.39013460    -0.15990
F708        F  0.84265677  0.50579717  0.37926670    -0.13620
C709        C  0.75351674  0.73860991  0.99560951     0.24390
C710        C  0.78357971  0.76960813  0.47217687    -0.23720
C711        C  0.79542822  0.81932089  0.46828943     0.19290
C712        C  0.77777305  0.84064596  0.48780908     0.24330
C713        C  0.74866678  0.80996286  0.01048258    -0.23670
C714        C  0.73704031  0.76054773  0.01451216     0.19230
F715        F  0.70907512  0.73283957  0.03707684    -0.13620
F716        F  0.74138621  0.69088926  0.00104464    -0.15990
F717        F  0.78833662  0.88808287  0.48349318    -0.15990
F718        F  0.82225307  0.84632273  0.44524866    -0.13620
C719        C  0.77112262  0.75166886  0.37874608     0.24390
C720        C  0.82220562  0.77738366  0.37141693    -0.23720
C721        C  0.84400226  0.82616695  0.35993613     0.19290
C722        C  0.81349607  0.84674638  0.35353716     0.24330
C723        C  0.76157152  0.81955065  0.35987336    -0.23670
C724        C  0.74178060  0.77277745  0.37378891     0.19230
F725        F  0.69215285  0.74459036  0.38034510    -0.13620
F726        F  0.74915161  0.70568891  0.39124587    -0.15990
F727        F  0.83374177  0.89116147  0.33943067    -0.15990
F728        F  0.89406742  0.85278540  0.35384379    -0.13620
C729        C  0.03657022  0.82204265  0.39664434     0.24390
C730        C  0.01010262  0.76946285  0.39838898    -0.23720
C731        C  0.02901747  0.74374993  0.38421515     0.19290
C732        C  0.07050422  0.76898423  0.36670402     0.24330
C733        C  0.09676612  0.82112792  0.36406722    -0.23670
C734        C  0.08011470  0.84790125  0.37953767     0.19230
F735        F  0.10465234  0.89832734  0.37730132    -0.13620
F736        F  0.01817114  0.84784032  0.40952203    -0.15990
F737        F  0.08237493  0.74124594  0.35064654    -0.15990
F738        F  0.00431008  0.69310632  0.38520826    -0.13620
C739        C  0.97434466  0.81799733  0.00596261     0.24390
C740        C  0.95186693  0.76893293  0.99624429    -0.23720
C741        C  0.97771688  0.74327109  0.99839233     0.19290
C742        C  0.02589256  0.76608231  0.00951770     0.24330
C743        C  0.05032787  0.81616064  0.01804617    -0.23670
C744        C  0.02369846  0.84163048  0.01715531     0.19230
F745        F  0.04627659  0.88971841  0.02543468    -0.13620
F746        F  0.95316907  0.84813587  0.50314051    -0.15990
F747        F  0.04889491  0.73890885  0.01142519    -0.15990
F748        F  0.95778448  0.69715873  0.98723385    -0.13620
C749        C  0.56598110  0.44974868  0.15000346     0.24390
C750        C  0.52417833  0.43430937  0.16767928    -0.23720
C751        C  0.52850134  0.46313934  0.19120267     0.19290
C752        C  0.57632308  0.50025375  0.20034027     0.24330
C753        C  0.61948761  0.50905632  0.18549876    -0.23670
C754        C  0.61358462  0.48679816  0.15892815     0.19230
F755        F  0.65419651  0.49758826  0.14273715    -0.13620
F756        F  0.56190921  0.42344740  0.12649622    -0.15990
F757        F  0.58054261  0.52336644  0.22518934    -0.15990
F758        F  0.48789833  0.44999832  0.20794372    -0.13620
C759        C  0.78093056  0.43022694  0.19830575     0.24390
C760        C  0.81945294  0.47712445  0.18912896    -0.23720
C761        C  0.86389578  0.48328529  0.17731341     0.19290
C762        C  0.86848753  0.44215013  0.17301696     0.24330
C763        C  0.82959621  0.39493675  0.18161395    -0.23670
C764        C  0.78676981  0.38928786  0.19539680     0.19230
F765        F  0.75023611  0.34415708  0.20530488    -0.13620
F766        F  0.73798427  0.42425255  0.20979486    -0.15990
F767        F  0.91107861  0.44842638  0.16080229    -0.15990
F768        F  0.90183747  0.52887283  0.16864895    -0.13620
C769        C  0.71606906  0.69750666  0.25825574     0.24390
C770        C  0.76163928  0.72380983  0.24253252    -0.23720
C771        C  0.78099363  0.77436195  0.23591017     0.19290
C772        C  0.75572697  0.79807616  0.24512697     0.24330
C773        C  0.70996875  0.77118917  0.26029483    -0.23670
C774        C  0.69036614  0.72075295  0.26652200     0.19230
F775        F  0.64839649  0.69471319  0.28284227    -0.13620
F776        F  0.69644155  0.64919020  0.26663411    -0.15990
F777        F  0.77680942  0.84765973  0.23997924    -0.15990
F778        F  0.82445308  0.80095095  0.22092675    -0.13620
C779        C  0.72455804  0.71847628  0.15045405     0.24390
C780        C  0.71080998  0.67051057  0.14146316    -0.23720
C781        C  0.68307539  0.65228954  0.11615157     0.19290
C782        C  0.66961299  0.68146811  0.10004659     0.24330
C783        C  0.68425900  0.72986691  0.10864448    -0.23670
C784        C  0.71167961  0.74812155  0.13403323     0.19230
F785        F  0.72491550  0.79406278  0.14332130    -0.13620
F786        F  0.75145869  0.73717146  0.17472842    -0.15990
F787        F  0.64266286  0.66233707  0.07577115    -0.15990
F788        F  0.66829897  0.60581150  0.10704867    -0.13620
C789        C  0.01622958  0.77989649  0.15792126     0.24390
C790        C  0.96755905  0.75679022  0.14559876    -0.23720
C791        C  0.96404436  0.75432637  0.11572845     0.19290
C792        C  0.00717427  0.77104465  0.09888163     0.24330
C793        C  0.05565860  0.79171930  0.11113595    -0.23670
C794        C  0.05966246  0.79693203  0.14089942     0.19230
F795        F  0.10486020  0.81391649  0.15385134    -0.13620
F796        F  0.02144405  0.78126449  0.18663131    -0.15990
F797        F  0.00099924  0.76525409  0.07041837    -0.15990
F798        F  0.91799382  0.73192634  0.10286559    -0.13620
C799        C  0.03838864  0.69926300  0.21713952     0.24390
C800        C  0.98939144  0.68230599  0.22722158    -0.23720
C801        C  0.98373234  0.69670855  0.25466643     0.19290
C802        C  0.02542944  0.72677044  0.27140628     0.24330
C803        C  0.07389515  0.74488860  0.26100812    -0.23670
C804        C  0.08052911  0.73109352  0.23383870     0.19230
F805        F  0.12772754  0.74882145  0.22347792    -0.13620
F806        F  0.04555185  0.68679459  0.19090841    -0.15990
F807        F  0.01840869  0.74125841  0.29710865    -0.15990
F808        F  0.93785493  0.68405684  0.26518101    -0.13620
C809        C  0.73924053  0.55010853  0.30040235     0.24390
C810        C  0.78650930  0.56958221  0.28695258    -0.23720
C811        C  0.82844936  0.58030795  0.30405298     0.19290
C812        C  0.82450142  0.57561209  0.33377695     0.24330
C813        C  0.77818083  0.55975865  0.34766389    -0.23670
C814        C  0.73528646  0.54583522  0.33041401     0.19230
F815        F  0.69009414  0.53114713  0.34270074    -0.13620
F816        F  0.69771594  0.53955719  0.28472076    -0.15990
F817        F  0.86764943  0.59127615  0.34874021    -0.15990
F818        F  0.87444669  0.59828252  0.29200837    -0.13620
C819        C  0.87188875  0.59975119  0.04395712     0.24390
C820        C  0.82383496  0.57100216  0.03105020    -0.23720
C821        C  0.78334212  0.53709534  0.04820937     0.19290
C822        C  0.78929640  0.53690736  0.07790135     0.24330
C823        C  0.83600574  0.57008054  0.09098758    -0.23670
C824        C  0.87793895  0.59936220  0.07361749     0.19230
F825        F  0.92330743  0.63199500  0.08542293    -0.13620
F826        F  0.91234291  0.63170392  0.02799581    -0.15990
F827        F  0.74800247  0.50781224  0.09418149    -0.15990
F828        F  0.73666964  0.50852110  0.03673497    -0.13620
O829        O  0.86527384  0.58174409  0.64033601    -0.79350
O830        O  0.76108601  0.64737136  0.73749013    -0.79370
O831        O  0.73079390  0.60364903  0.64502222    -0.79380
O832        O  0.91155264  0.72605678  0.68748208    -0.79320
O833        O  0.73401596  0.64115269  0.68380311    -0.79440
O834        O  0.89769013  0.67546985  0.65271093    -0.79360
O835        O  0.82490419  0.71212078  0.71800586    -0.79350
O836        O  0.80510021  0.59449827  0.62700149    -0.79380
C837        C  0.83677577  0.58251474  0.62075936     1.10340
C838        C  0.78411923  0.69317000  0.73211959     1.10230
C839        C  0.72535703  0.63540918  0.65762325     1.10360
C840        C  0.92148697  0.71843105  0.66249629     1.10240
O841        O  0.94326428  0.63611057  0.68484875    -0.79350
O842        O  0.67985247  0.56290244  0.71900278    -0.79420
O843        O  0.78357986  0.51765550  0.66991648    -0.79360
O844        O  0.82857841  0.63281864  0.75243563    -0.79340
O845        O  0.76592569  0.56103332  0.73716745    -0.79390
O846        O  0.84658112  0.55637327  0.70014749    -0.79360
O847        O  0.90222718  0.64104752  0.72008814    -0.79320
O848        O  0.70704837  0.52846904  0.69004460    -0.79390
Co849      Co  0.87232803  0.61740569  0.67751567     1.51530
Co850      Co  0.75003629  0.59882418  0.70849946     1.51690
Co851      Co  0.76066108  0.56549344  0.65994190     1.51570
Co852      Co  0.86282520  0.67527393  0.71701397     1.51470
O853        O  0.81296247  0.62360253  0.68672370    -1.41280
C854        C  0.94455720  0.65303296  0.70945297     1.10270
C855        C  0.67095603  0.53414487  0.69831647     1.10360
C856        C  0.81445829  0.51748962  0.68794306     1.10300
C857        C  0.79546225  0.58694379  0.75705977     1.10270
O858        O  0.89017154  0.77664803  0.89783574    -0.79350
O859        O  0.73103686  0.56289705  0.93284874    -0.79370
O860        O  0.78307473  0.60565598  0.88572253    -0.79380
O861        O  0.77287712  0.69310579  0.95053796    -0.79320
O862        O  0.79048514  0.54546606  0.89854922    -0.79440
O863        O  0.84350552  0.75968535  0.94352716    -0.79360
O864        O  0.73147783  0.59810065  0.97230058    -0.79350
O865        O  0.83341042  0.70322628  0.88075481    -0.79380
C866        C  0.85237186  0.75088580  0.88225173     1.10340
C867        C  0.70745807  0.56782678  0.95246985     1.10230
C868        C  0.77988133  0.56627771  0.87874123     1.10360
C869        C  0.79901012  0.73948974  0.95254676     1.10240
O870        O  0.91715600  0.74662987  0.95117950    -0.79350
O871        O  0.86158387  0.57676762  0.94614711    -0.79420
O872        O  0.92765958  0.70070443  0.89292522    -0.79360
O873        O  0.83124377  0.63252944  0.99925401    -0.79340
O874        O  0.78766871  0.55740722  0.98311748    -0.79390
O875        O  0.93832059  0.74784375  0.92831909    -0.79360
O876        O  0.86378900  0.72382243  0.98716144    -0.79320
O877        O  0.87946975  0.60089294  0.90160843    -0.79390
Co878      Co  0.86412700  0.71818102  0.92136773     1.51530
Co879      Co  0.79667278  0.56994819  0.93998912     1.51690
Co880      Co  0.85412582  0.65213856  0.89434773     1.51570
Co881      Co  0.80176295  0.66079486  0.97373876     1.51470
O882        O  0.83583548  0.64939921  0.93853989    -1.41280
C883        C  0.90828624  0.74694640  0.97749869     1.10270
C884        C  0.88235564  0.57682628  0.92362155     1.10360
C885        C  0.95722898  0.73689173  0.90801344     1.10300
C886        C  0.81443967  0.58707467  0.00264945     1.10270
O887        O  0.12874268  0.82163785  0.51788614    -0.79350
O888        O  0.29793648  0.92847157  0.53363824    -0.79370
O889        O  0.19840823  0.95294406  0.57575574    -0.79380
O890        O  0.23078844  0.80558105  0.98320325    -0.79320
O891        O  0.26763799  0.94968454  0.58274893    -0.79440
O892        O  0.15597676  0.75375695  0.00212024    -0.79360
O893        O  0.23301052  0.88705734  0.50469620    -0.79350
O894        O  0.12260057  0.86970953  0.54779396    -0.79380
C895        C  0.10400074  0.83943689  0.52758079     1.10340
C896        C  0.27108987  0.92765776  0.51227322     1.10230
C897        C  0.24368291  0.97301258  0.58479854     1.10360
C898        C  0.18877149  0.76580158  0.98196716     1.10240
O899        O  0.15472296  0.73055700  0.56328454    -0.79350
O900        O  0.25363224  0.86188225  0.60894833    -0.79420
O901        O  0.13841182  0.85114631  0.59473427    -0.79360
O902        O  0.30192141  0.85503032  0.52146920    -0.79340
O903        O  0.29859468  0.84412852  0.56647494    -0.79390
O904        O  0.09754198  0.77649361  0.57436940    -0.79360
O905        O  0.22432194  0.76438872  0.53777446    -0.79320
O906        O  0.18789730  0.87319645  0.60632348    -0.79390
Co907      Co  0.13950810  0.77597543  0.54167673     1.51530
Co908      Co  0.27502451  0.89086663  0.57149034     1.51690
Co909      Co  0.19156876  0.89101358  0.56408778     1.51570
Co910      Co  0.22677395  0.82600726  0.52076466     1.51470
O911        O  0.20534645  0.83821256  0.55603491    -1.41280
C912        C  0.19340732  0.73025972  0.55473662     1.10270
C913        C  0.21838572  0.86419682  0.62078946     1.10360
C914        C  0.09960114  0.80662522  0.59293009     1.10300
C915        C  0.32113083  0.84893001  0.54378649     1.10270
O916        O  0.12409509  0.77263037  0.80304746    -0.79350
O917        O  0.33261919  0.87245184  0.79554316    -0.79370
O918        O  0.22544705  0.91323527  0.75201436    -0.79380
O919        O  0.25662744  0.78186864  0.82124858    -0.79320
O920        O  0.28567560  0.89430929  0.75172326    -0.79440
O921        O  0.19974265  0.76304176  0.79072476    -0.79360
O922        O  0.32509003  0.86665921  0.84142180    -0.79350
O923        O  0.14696698  0.82479771  0.76683397    -0.79380
C924        C  0.11792798  0.78251729  0.77766274     1.10340
C925        C  0.34889699  0.86798385  0.81958675     1.10230
C926        C  0.25070289  0.89776735  0.73925041     1.10360
C927        C  0.23091009  0.75396843  0.80137680     1.10240
O928        O  0.16868859  0.74443637  0.85004226    -0.79350
O929        O  0.29560137  0.97634902  0.78269841    -0.79420
O930        O  0.13901848  0.86164415  0.82173804    -0.79360
O931        O  0.26205356  0.89908971  0.85734619    -0.79340
O932        O  0.32850629  0.94755316  0.82959565    -0.79390
O933        O  0.17493103  0.83276280  0.85048162    -0.79360
O934        O  0.23851081  0.79962664  0.87302930    -0.79320
O935        O  0.22477518  0.95443491  0.80504638    -0.79390
Co936      Co  0.19191488  0.80038606  0.82109356     1.51530
Co937      Co  0.30728562  0.91915111  0.79041216     1.51690
Co938      Co  0.18700812  0.88735399  0.78796565     1.51570
Co939      Co  0.25129300  0.83910454  0.83809519     1.51470
O940        O  0.23647928  0.86601912  0.80146867    -1.41280
C941        C  0.19740417  0.75673100  0.87236663     1.10270
C942        C  0.26463203  0.98752036  0.79268185     1.10360
C943        C  0.14087586  0.84260173  0.84557101     1.10300
C944        C  0.30266171  0.93985043  0.85215995     1.10270
O945        O  0.20884715  0.53153107  0.55173124    -0.79350
O946        O  0.30794015  0.42448088  0.54136922    -0.79370
O947        O  0.29189887  0.54311558  0.56833111    -0.79380
O948        O  0.22325422  0.40893164  0.00895936    -0.79320
O949        O  0.33977180  0.50958867  0.57345937    -0.79440
O950        O  0.23541510  0.48335651  0.51156892    -0.79360
O951        O  0.23940140  0.35083491  0.53809595    -0.79350
O952        O  0.21430901  0.54003803  0.59820509    -0.79380
C953        C  0.20999741  0.55563073  0.57395659     1.10340
C954        C  0.28612702  0.37978258  0.53304612     1.10230
C955        C  0.33481240  0.54678765  0.56790307     1.10360
C956        C  0.24401777  0.45272624  0.99872929     1.10240
O957        O  0.13676995  0.39004626  0.52408646    -0.79350
O958        O  0.28554680  0.44399669  0.62147165    -0.79420
O959        O  0.16775204  0.43914521  0.60753528    -0.79360
O960        O  0.17278648  0.33588375  0.58273776    -0.79340
O961        O  0.25483052  0.36481103  0.59047633    -0.79390
O962        O  0.12603824  0.43251124  0.56900656    -0.79360
O963        O  0.13764326  0.31992219  0.52490237    -0.79320
O964        O  0.26606428  0.50198896  0.62236379    -0.79390
Co965      Co  0.18396052  0.45832525  0.54158634     1.51530
Co966      Co  0.29370872  0.43708219  0.58029286     1.51690
Co967      Co  0.22797311  0.48966579  0.58686964     1.51570
Co968      Co  0.19159511  0.37464465  0.54605833     1.51470
O969        O  0.23129779  0.43819589  0.56646992    -1.41280
C970        C  0.11639833  0.34409730  0.51705102     1.10270
C971        C  0.27625311  0.47255193  0.63500055     1.10360
C972        C  0.12609756  0.42323682  0.59523403     1.10300
C973        C  0.20847440  0.33254767  0.59483309     1.10270
O974        O  0.21888526  0.54006883  0.79268431    -0.79350
O975        O  0.34361774  0.45606074  0.81333046    -0.79370
O976        O  0.29622944  0.55382401  0.84740766    -0.79380
O977        O  0.24273518  0.41941040  0.77275051    -0.79320
O978        O  0.31755842  0.53104592  0.80799927    -0.79440
O979        O  0.20872579  0.46594651  0.76085987    -0.79360
O980        O  0.27558891  0.41255331  0.78663215    -0.79350
O981        O  0.20579949  0.54715449  0.83729556    -0.79380
C982        C  0.21654262  0.56525935  0.81232395     1.10340
C983        C  0.32239115  0.42615072  0.79286384     1.10230
C984        C  0.32547929  0.56433684  0.82590444     1.10360
C985        C  0.23346523  0.44561440  0.75461243     1.10240
O986        O  0.11758859  0.39569581  0.78937721    -0.79350
O987        O  0.31576738  0.48803384  0.86224131    -0.79420
O988        O  0.15273432  0.44957625  0.86275809    -0.79360
O989        O  0.21850697  0.33486768  0.81501028    -0.79340
O990        O  0.26030925  0.39566233  0.84483803    -0.79390
O991        O  0.12567494  0.46751055  0.82323737    -0.79360
O992        O  0.15773324  0.35517068  0.78537637    -0.79320
O993        O  0.23957156  0.45614053  0.87777173    -0.79390
Co994      Co  0.17169377  0.46733567  0.79310603     1.51530
Co995      Co  0.28610329  0.46266653  0.82289507     1.51690
Co996      Co  0.22324998  0.49877907  0.85501927     1.51570
Co997      Co  0.21310649  0.39403243  0.81277502     1.51470
O998        O  0.21869890  0.45947254  0.82064685    -1.41280
C999        C  0.11953909  0.35881268  0.78069149     1.10270
C1000       C  0.28535377  0.47309844  0.88297445     1.10360
C1001       C  0.11715790  0.44710170  0.84787653     1.10300
C1002       C  0.24708735  0.35175723  0.83661132     1.10270
O1003       O  0.44278184  0.36066028  0.67356421    -0.79350
O1004       O  0.40165810  0.15492871  0.66715176    -0.79370
O1005       O  0.54478186  0.29607381  0.69684569    -0.79380
O1006       O  0.37146651  0.21800548  0.63979630    -0.79320
O1007       O  0.50241934  0.21620194  0.68442321    -0.79440
O1008       O  0.42950510  0.29249474  0.63878096    -0.79360
O1009       O  0.32955330  0.14736810  0.67778063    -0.79350
O1010       O  0.50553359  0.34885557  0.67083212    -0.79380
C1011       C  0.48893344  0.37797912  0.66855981     1.10340
C1012       C  0.35378704  0.13260755  0.66389899     1.10230
C1013       C  0.54337169  0.25751880  0.68725341     1.10360
C1014       C  0.40793549  0.25280460  0.62652224     1.10240
O1015       O  0.34141440  0.29200674  0.65765133    -0.79350
O1016       O  0.46909851  0.21230492  0.74318936    -0.79420
O1017       O  0.45376021  0.34491569  0.72485641    -0.79360
O1018       O  0.33536544  0.20095236  0.72349090    -0.79340
O1019       O  0.37253921  0.15582850  0.72578626    -0.79390
O1020       O  0.37479278  0.29204444  0.71263328    -0.79360
O1021       O  0.29177109  0.21244092  0.67014957    -0.79320
O1022       O  0.48976706  0.29084200  0.74559778    -0.79390
Co1023     Co  0.39759411  0.28614632  0.67522836     1.51530
Co1024     Co  0.43648265  0.18949894  0.70386155     1.51690
Co1025     Co  0.49449199  0.31590582  0.70814109     1.51570
Co1026     Co  0.35746543  0.21945832  0.68238587     1.51470
O1027       O  0.43322657  0.25213810  0.69340612    -1.41280
C1028       C  0.29703886  0.25257966  0.65864201     1.10270
C1029       C  0.48090313  0.25115500  0.75739333     1.10360
C1030       C  0.40639739  0.32832460  0.72752389     1.10300
C1031       C  0.34102933  0.16665303  0.73525538     1.10270
O1032       O  0.48915868  0.36667306  0.92508096    -0.79350
O1033       O  0.39394434  0.11472686  0.94465703    -0.79370
O1034       O  0.51270043  0.26134082  0.94080155    -0.79380
O1035       O  0.41255788  0.22668397  0.87671376    -0.79320
O1036       O  0.48189308  0.19281701  0.96760708    -0.79440
O1037       O  0.48234751  0.28254238  0.89808038    -0.79360
O1038       O  0.40891432  0.15291175  0.90407506    -0.79350
O1039       O  0.52702975  0.35063001  0.96074920    -0.79380
C1040       C  0.52486308  0.38237787  0.94410654     1.10340
C1041       C  0.39665342  0.11431032  0.91807952     1.10230
C1042       C  0.51591688  0.22535852  0.95090857     1.10360
C1043       C  0.45985082  0.25602087  0.87663246     1.10240
O1044       O  0.39420484  0.28910707  0.89513095    -0.79350
O1045       O  0.41154831  0.21134025  0.00132626    -0.79420
O1046       O  0.43333698  0.30596718  0.98222528    -0.79360
O1047       O  0.31145945  0.12175194  0.93013363    -0.79340
O1048       O  0.33665560  0.15225166  0.97168119    -0.79390
O1049       O  0.39035599  0.30211914  0.94662340    -0.79360
O1050       O  0.32601976  0.21557838  0.90484951    -0.79320
O1051       O  0.48916460  0.26834703  0.99714424    -0.79390
Co1052     Co  0.43992439  0.29193610  0.92630110     1.51530
Co1053     Co  0.40726532  0.17117304  0.97010958     1.51690
Co1054     Co  0.47065743  0.28290637  0.95815914     1.51570
Co1055     Co  0.36641569  0.18184369  0.90654026     1.51470
O1056       O  0.40769538  0.22095956  0.94150633    -1.41280
C1057       C  0.34632580  0.25985279  0.89447679     1.10270
C1058       C  0.45113316  0.24335229  0.01274165     1.10360
C1059       C  0.39867738  0.31076321  0.97214373     1.10300
C1060       C  0.30933160  0.11533280  0.95704158     1.10270
O1061       O  0.62717190  0.73275487  0.57719402    -0.79350
O1062       O  0.53632398  0.86078818  0.56981806    -0.79370
O1063       O  0.68295572  0.87438952  0.61664161    -0.79380
O1064       O  0.52637804  0.78032808  0.55591307    -0.79320
O1065       O  0.60141373  0.85009903  0.61460590    -0.79440
O1066       O  0.56064843  0.73683767  0.54940797    -0.79360
O1067       O  0.52695861  0.85058398  0.52249098    -0.79350
O1068       O  0.69452137  0.80307105  0.59132917    -0.79380
C1069       C  0.66743539  0.75483418  0.59145506     1.10340
C1070       C  0.51169318  0.85686089  0.54611341     1.10230
C1071       C  0.64016294  0.85742902  0.62881565     1.10360
C1072       C  0.52170180  0.73809332  0.55354089     1.10240
O1073       O  0.62469287  0.77520767  0.52188692    -0.79350
O1074       O  0.68112440  0.94703137  0.59769640    -0.79420
O1075       O  0.73749523  0.86781237  0.54113038    -0.79360
O1076       O  0.62668969  0.90712306  0.51526766    -0.79340
O1077       O  0.62648556  0.94769562  0.55216918    -0.79390
O1078       O  0.67238006  0.79222484  0.53434261    -0.79360
O1079       O  0.58154418  0.80836356  0.50272468    -0.79320
O1080       O  0.73159884  0.94318967  0.56735907    -0.79390
Co1081     Co  0.62480287  0.78843812  0.56474480     1.51530
Co1082     Co  0.61302270  0.89592201  0.58191267     1.51690
Co1083     Co  0.70654319  0.87224313  0.57707079     1.51570
Co1084     Co  0.58067682  0.84523279  0.53616913     1.51470
O1085       O  0.63722811  0.85430092  0.55831168    -1.41280
C1086       C  0.60364412  0.78091380  0.99917611     1.10270
C1087       C  0.72398627  0.96693707  0.58586765     1.10360
C1088       C  0.71839919  0.82606893  0.52922273     1.10300
C1089       C  0.63417473  0.94707998  0.52593608     1.10270
O1090       O  0.68987227  0.78877956  0.83489056    -0.79350
O1091       O  0.63520327  0.93841578  0.83842104    -0.79370
O1092       O  0.76784903  0.94220068  0.79411384    -0.79380
O1093       O  0.64415448  0.81628230  0.87627365    -0.79320
O1094       O  0.70002545  0.94203642  0.80531553    -0.79440
O1095       O  0.59770089  0.74291738  0.86121686    -0.79360
O1096       O  0.66049636  0.90528843  0.87039624    -0.79350
O1097       O  0.73433271  0.87075561  0.84337913    -0.79380
C1098       C  0.72699328  0.82658394  0.84666599     1.10340
C1099       C  0.66638596  0.94387739  0.85802866     1.10230
C1100       C  0.74025446  0.96185215  0.79087707     1.10360
C1101       C  0.62095217  0.77110063  0.88174348     1.10240
O1102       O  0.55337429  0.75107276  0.80899677    -0.79350
O1103       O  0.61150954  0.86606581  0.76621481    -0.79420
O1104       O  0.72497008  0.83637667  0.78919847    -0.79360
O1105       O  0.55421397  0.86418439  0.85124144    -0.79340
O1106       O  0.55082419  0.85741690  0.80544517    -0.79390
O1107       O  0.64570486  0.78071981  0.78033235    -0.79360
O1108       O  0.53814531  0.77113285  0.85137549    -0.79320
O1109       O  0.68668924  0.87958093  0.76540184    -0.79390
Co1110     Co  0.62147028  0.77040545  0.82049777     1.51530
Co1111     Co  0.62407335  0.89724141  0.80359444     1.51690
Co1112     Co  0.70632775  0.88083755  0.80719195     1.51570
Co1113     Co  0.60193303  0.83943633  0.86054443     1.51470
O1114       O  0.63377928  0.84169880  0.82225457    -1.41280
C1115       C  0.52265553  0.74506528  0.82849325     1.10270
C1116       C  0.64667621  0.86860653  0.75236740     1.10360
C1117       C  0.69273972  0.79776655  0.77638697     1.10300
C1118       C  0.53039598  0.85797339  0.82806526     1.10270
O1119       O  0.81989413  0.31596025  0.69619839    -0.79350
O1120       O  0.75328053  0.14065742  0.70870392    -0.79370
O1121       O  0.75099570  0.25930975  0.64760976    -0.79380
O1122       O  0.84607525  0.20625684  0.73253999    -0.79320
O1123       O  0.72029179  0.20525010  0.68463383    -0.79440
O1124       O  0.81805872  0.25639648  0.73280548    -0.79360
O1125       O  0.81881765  0.13524537  0.69791519    -0.79350
O1126       O  0.84729491  0.34067131  0.65399117    -0.79380
C1127       C  0.83093183  0.34699806  0.67669920     1.10340
C1128       C  0.77938430  0.11988182  0.71217857     1.10230
C1129       C  0.71912569  0.23801761  0.66839536     1.10360
C1130       C  0.82165679  0.22297950  0.74493165     1.10240
O1131       O  0.92231007  0.27483974  0.71456071    -0.79350
O1132       O  0.72827045  0.17626140  0.63007073    -0.79420
O1133       O  0.89314671  0.28879231  0.63374130    -0.79360
O1134       O  0.86448142  0.18421969  0.64974248    -0.79340
O1135       O  0.78008119  0.13147426  0.65123081    -0.79390
O1136       O  0.91950965  0.33312055  0.67267830    -0.79360
O1137       O  0.92030954  0.20514523  0.70178016    -0.79320
O1138       O  0.80507218  0.21453493  0.61750750    -0.79390
Co1139     Co  0.86537444  0.29066841  0.70223803     1.51530
Co1140     Co  0.74986588  0.16768616  0.67007675     1.51690
Co1141     Co  0.82371348  0.27246253  0.63994480     1.51570
Co1142     Co  0.86205118  0.20617310  0.68903585     1.51470
O1143       O  0.81946715  0.23203808  0.67551437    -1.41280
C1144       C  0.94229853  0.24682923  0.71434857     1.10270
C1145       C  0.76009533  0.19285162  0.61033841     1.10360
C1146       C  0.92890666  0.32073812  0.64881038     1.10300
C1147       C  0.82416728  0.14410459  0.64180924     1.10270
O1148       O  0.88290109  0.37335441  0.96257770    -0.79350
O1149       O  0.69036818  0.12823117  0.92149195    -0.79370
O1150       O  0.73567174  0.27321424  0.90656008    -0.79380
O1151       O  0.82854102  0.21767523  0.48497997    -0.79320
O1152       O  0.72331633  0.22022641  0.94042214    -0.79440
O1153       O  0.79863290  0.27573343  0.97664289    -0.79360
O1154       O  0.75272566  0.13714005  0.95001252    -0.79350
O1155       O  0.81997594  0.34951507  0.93331698    -0.79380
C1156       C  0.85996750  0.38555958  0.94439222     1.10340
C1157       C  0.70593472  0.11262027  0.94207696     1.10230
C1158       C  0.70901562  0.24570464  0.92704841     1.10360
C1159       C  0.80567194  0.23911722  0.49470800     1.10240
O1160       O  0.89808002  0.29305854  0.97553882    -0.79350
O1161       O  0.73274829  0.20183251  0.87716853    -0.79420
O1162       O  0.88191739  0.34529874  0.88769454    -0.79360
O1163       O  0.83681521  0.15858999  0.91449149    -0.79340
O1164       O  0.77318081  0.15507845  0.89205364    -0.79390
O1165       O  0.91588829  0.33300485  0.92505017    -0.79360
O1166       O  0.90278566  0.23900540  0.94939706    -0.79320
O1167       O  0.80261360  0.27058136  0.86594991    -0.79390
Co1168     Co  0.85496085  0.30531238  0.94875293     1.51530
Co1169     Co  0.75212735  0.19026793  0.91720880     1.51690
Co1170     Co  0.81063684  0.30469622  0.90023490     1.51570
Co1171     Co  0.82763420  0.19392261  0.94700641     1.51470
O1172       O  0.82055463  0.24824672  0.92219204    -1.41280
C1173       C  0.92177360  0.27184478  0.96839473     1.10270
C1174       C  0.76728313  0.22868079  0.85910520     1.10360
C1175       C  0.92016229  0.34982796  0.90023043     1.10300
C1176       C  0.80300696  0.13947289  0.89544958     1.10270
C1177       C  0.83929345  0.22830391  0.79619513     0.24390
C1178       C  0.80332354  0.20965410  0.77450023    -0.23720
C1179       C  0.75198981  0.19056512  0.78141562     0.19290
C1180       C  0.73767400  0.19226299  0.80961664     0.24330
C1181       C  0.77466247  0.21255003  0.83105770    -0.23670
C1182       C  0.82512895  0.22774062  0.82408823     0.19230
F1183       F  0.86223997  0.24664643  0.84418062    -0.13620
F1184       F  0.88912662  0.25435097  0.78995702    -0.15990
F1185       F  0.68902034  0.17780835  0.81541739    -0.15990
F1186       F  0.71649144  0.17387516  0.76053071    -0.13620
C1187       C  0.76786560  0.17528962  0.53439185     0.24390
C1188       C  0.78216952  0.22315555  0.52337090    -0.23720
C1189       C  0.77536274  0.25553371  0.54054834     0.19290
C1190       C  0.75998180  0.24229976  0.56889518     0.24330
C1191       C  0.74887458  0.19570889  0.58016123    -0.23670
C1192       C  0.74898723  0.16108734  0.56201032     0.19230
F1193       F  0.73529204  0.11489462  0.57202117    -0.13620
F1194       F  0.77406051  0.14266303  0.51899039    -0.15990
F1195       F  0.76103928  0.27698384  0.58619678    -0.15990
F1196       F  0.78834201  0.30183250  0.53095127    -0.13620
C1197       C  0.74452028  0.00183875  0.88759409     0.24390
C1198       C  0.71059221  0.99439567  0.86496526    -0.23720
C1199       C  0.72084150  0.03601969  0.84797199     0.19290
C1200       C  0.76036042  0.08359806  0.85479471     0.24330
C1201       C  0.78849505  0.09248021  0.88012804    -0.23670
C1202       C  0.78234130  0.05049940  0.89546862     0.19230
F1203       F  0.80872957  0.05658793  0.91988743    -0.13620
F1204       F  0.73846293  0.96261024  0.90369916    -0.15990
F1205       F  0.76708841  0.12207989  0.83809892    -0.15990
F1206       F  0.69121918  0.03149091  0.82525334    -0.13620
C1207       C  0.71113318  0.01055986  0.76245487     0.24390
C1208       C  0.75096234  0.00330972  0.77145468    -0.23720
C1209       C  0.80012585  0.03656450  0.76240055     0.19290
C1210       C  0.80943559  0.07588412  0.74414958     0.24330
C1211       C  0.76933050  0.08203100  0.73420890    -0.23670
C1212       C  0.72039275  0.04976934  0.74404603     0.19230
F1213       F  0.68124361  0.05487368  0.73500286    -0.13620
F1214       F  0.66273339  0.97893661  0.77078715    -0.15990
F1215       F  0.85802208  0.10802792  0.73629663    -0.15990
F1216       F  0.83929111  0.03152010  0.77149306    -0.13620
C1217       C  0.78942083  0.05872903  0.58150200     0.24390
C1218       C  0.76621472  0.01382303  0.59736445    -0.23720
C1219       C  0.77924296  0.01474178  0.62611201     0.19290
C1220       C  0.80953739  0.05996836  0.63966390     0.24330
C1221       C  0.82536488  0.10534026  0.62509249    -0.23670
C1222       C  0.81889217  0.10451962  0.59542517     0.19230
F1223       F  0.83632968  0.14793626  0.58059091    -0.13620
F1224       F  0.77924869  0.05859134  0.55333408    -0.15990
F1225       F  0.81681292  0.05932473  0.66815806    -0.15990
F1226       F  0.75911057  0.97187556  0.64174484    -0.13620
C1227       C  0.66713740  0.99529445  0.48031594     0.24390
C1228       C  0.64979390  0.99239780  0.50808961    -0.23720
C1229       C  0.64674733  0.03305647  0.51836735     0.19290
C1230       C  0.66451864  0.07693304  0.50195331     0.24330
C1231       C  0.67262166  0.06585241  0.95752538    -0.23670
C1232       C  0.66854313  0.02176721  0.94825234     0.19230
F1233       F  0.67917613  0.01822225  0.92094001    -0.13620
F1234       F  0.65438247  0.94078899  0.95759858    -0.15990
F1235       F  0.66331523  0.11619436  0.51272206    -0.15990
F1236       F  0.62777040  0.03099935  0.54454791    -0.13620
C1237       C  0.66130548  0.78861006  0.92871193     0.24390
C1238       C  0.61895714  0.75647841  0.91204175    -0.23720
C1239       C  0.57267808  0.72474833  0.92574906     0.19290
C1240       C  0.56809431  0.72903251  0.95519846     0.24330
C1241       C  0.60948807  0.76547114  0.97083852    -0.23670
C1242       C  0.65575475  0.79492509  0.95724402     0.19230
F1243       F  0.69308059  0.83573287  0.97017708    -0.13620
F1244       F  0.70656937  0.82028966  0.91635662    -0.15990
F1245       F  0.52240229  0.70097847  0.96785716    -0.15990
F1246       F  0.53090063  0.69410945  0.91030436    -0.13620
C1247       C  0.68351734  0.86627898  0.67596407     0.24390
C1248       C  0.63870229  0.85303024  0.66062985    -0.23720
C1249       C  0.59496327  0.84082093  0.67624393     0.19290
C1250       C  0.59683037  0.84427653  0.70607749     0.24330
C1251       C  0.64259654  0.86054942  0.72102322    -0.23670
C1252       C  0.68559864  0.87087079  0.70544739     0.19230
F1253       F  0.73091425  0.88779976  0.71849928    -0.13620
F1254       F  0.72662603  0.87681291  0.66250289    -0.15990
F1255       F  0.55396270  0.83269292  0.72019071    -0.15990
F1256       F  0.55052914  0.82668303  0.66272358    -0.13620
C1257       C  0.58391423  0.20612852  0.96331777     0.24390
C1258       C  0.56223573  0.22474285  0.94398494    -0.23720
C1259       C  0.58847205  0.24864966  0.91877941     0.19290
C1260       C  0.63607913  0.25582130  0.91355576     0.24330
C1261       C  0.65891186  0.23907235  0.93329786    -0.23670
C1262       C  0.63190303  0.21332250  0.95808653     0.19230
F1263       F  0.65226445  0.19604929  0.97765496    -0.13620
F1264       F  0.55983679  0.18302680  0.98785030    -0.15990
F1265       F  0.65948902  0.27892425  0.88887437    -0.15990
F1266       F  0.56822748  0.26572576  0.89902672    -0.13620
C1267       C  0.65576105  0.26202791  0.65036078     0.24390
C1268       C  0.67726590  0.24849972  0.67298768    -0.23720
C1269       C  0.65577092  0.24140986  0.70025831     0.19290
C1270       C  0.61393481  0.24680750  0.70467863     0.24330
C1271       C  0.59156306  0.25865180  0.68203558    -0.23670
C1272       C  0.61297301  0.26647927  0.65480527     0.19230
F1273       F  0.59166604  0.27708818  0.63239507    -0.13620
F1274       F  0.67442273  0.26843048  0.62366018    -0.15990
F1275       F  0.59407710  0.23885151  0.73118493    -0.15990
F1276       F  0.67548864  0.22945708  0.72292754    -0.13620
C1277       C  0.47305437  0.29424033  0.83028943     0.24390
C1278       C  0.48349351  0.26507518  0.84864408    -0.23720
C1279       C  0.49519292  0.23087570  0.83703079     0.19290
C1280       C  0.49597058  0.22604230  0.80725376     0.24450
C1281       C  0.48243227  0.25354936  0.78902108    -0.23670
C1282       C  0.47028111  0.28705174  0.80126368     0.19230
F1283       F  0.45121793  0.31024193  0.78526260    -0.13620
F1284       F  0.45790114  0.32464977  0.84076794    -0.15990
F1285       F  0.50795738  0.19355899  0.79646456    -0.15990
F1286       F  0.50261340  0.20009252  0.85449943    -0.13620
C1287       C  0.39062259  0.21576626  0.57847502     0.24390
C1288       C  0.42519560  0.24840183  0.59828343    -0.23720
C1289       C  0.47655958  0.27906296  0.59047664     0.19290
C1290       C  0.49267666  0.27770516  0.56295417     0.24330
C1291       C  0.45780533  0.24544049  0.54297337    -0.23670
C1292       C  0.40645801  0.21452725  0.55112587     0.19230
F1293       F  0.37046432  0.18456546  0.53216810    -0.13620
F1294       F  0.34086934  0.18683010  0.58507668    -0.15990
F1295       F  0.54211895  0.30737645  0.55597680    -0.15990
F1296       F  0.51131971  0.31002105  0.60962769    -0.13620
C1297       C  0.38277542  0.65282053  0.84264010     0.24390
C1298       C  0.37287589  0.61405514  0.82389652    -0.23720
C1299       C  0.41114309  0.62156160  0.80494874     0.19290
C1300       C  0.45859241  0.66484086  0.80580724     0.24330
C1301       C  0.46966120  0.70252705  0.82560612    -0.23670
C1302       C  0.43065225  0.69652841  0.84348673     0.19230
F1303       F  0.43895569  0.73247193  0.86215833    -0.13620
F1304       F  0.34649329  0.64821043  0.86059530    -0.15990
F1305       F  0.49455048  0.66802136  0.78807991    -0.15990
F1306       F  0.40402485  0.58582411  0.78639247    -0.13620
C1307       C  0.27060194  0.25043881  0.86664067     0.24390
C1308       C  0.31620272  0.27999662  0.88157092    -0.23720
C1309       C  0.33676492  0.33176970  0.88210333     0.19290
C1310       C  0.31420001  0.35388553  0.86720234     0.24330
C1311       C  0.26866220  0.32502890  0.85213577    -0.23670
C1312       C  0.24694801  0.27289972  0.85192835     0.19230
F1313       F  0.20342111  0.24392517  0.83740516    -0.13620
F1314       F  0.25009696  0.20037871  0.86537287    -0.15990
F1315       F  0.33864740  0.40445452  0.86692958    -0.15990
F1316       F  0.37983112  0.36186681  0.89682989    -0.13620
C1317       C  0.32022713  0.37224946  0.75344495     0.24390
C1318       C  0.34761400  0.40507585  0.77571394    -0.23720
C1319       C  0.39625440  0.41335491  0.78201812     0.19290
C1320       C  0.41637242  0.38918218  0.76651966     0.24330
C1321       C  0.38763276  0.35512510  0.74495737    -0.23670
C1322       C  0.33999900  0.34838770  0.73845897     0.19230
F1323       F  0.31231103  0.31931413  0.71665851    -0.13620
F1324       F  0.27342555  0.36235288  0.74570615    -0.15990
F1325       F  0.46372893  0.39913463  0.77272403    -0.15990
F1326       F  0.42405881  0.44408714  0.80338633    -0.13620
C1327       C  0.98717580  0.25839980  0.76044650     0.24390
C1328       C  0.98941127  0.26337173  0.73070493    -0.23720
C1329       C  0.03675811  0.29189379  0.71768606     0.19290
C1330       C  0.08041775  0.31866162  0.73440245     0.24330
C1331       C  0.07657800  0.32035739  0.76408691    -0.23670
C1332       C  0.02988962  0.28852529  0.77710772     0.19230
F1333       F  0.02554441  0.28734307  0.80582440    -0.13620
F1334       F  0.94345167  0.22455111  0.77321713    -0.15990
F1335       F  0.12600950  0.34480544  0.72153677    -0.15990
F1336       F  0.04039708  0.29546249  0.68891441    -0.13620
C1337       C  0.00616529  0.36232143  0.89473086     0.24390
C1338       C  0.96979120  0.37425019  0.88602518    -0.23720
C1339       C  0.98152805  0.40942403  0.86383065     0.19290
C1340       C  0.02918952  0.43286496  0.85098870     0.24330
C1341       C  0.06584148  0.42150960  0.86017422    -0.23670
C1342       C  0.05345958  0.38550340  0.88195159     0.19230
F1343       F  0.08689675  0.37187981  0.89071458    -0.13620
F1344       F  0.99576864  0.32732044  0.91532827    -0.15990
F1345       F  0.03985708  0.46765915  0.83021618    -0.15990
F1346       F  0.94750601  0.42228793  0.85512753    -0.13620
C1347       C  0.38050716  0.64076451  0.55938804     0.24390
C1348       C  0.38144466  0.59608541  0.56204307    -0.23720
C1349       C  0.42867262  0.59926802  0.56116491     0.19290
C1350       C  0.47327590  0.64511821  0.55854980     0.24330
C1351       C  0.47274488  0.68994258  0.55633033    -0.23670
C1352       C  0.42570014  0.68716411  0.55653894     0.19230
F1353       F  0.42327048  0.72917876  0.55396952    -0.13620
F1354       F  0.33607953  0.63990491  0.56002558    -0.15990
F1355       F  0.51734663  0.64512509  0.55882229    -0.15990
F1356       F  0.43246000  0.55792143  0.56335174    -0.13620
C1357       C  0.24401960  0.24234424  0.61591998     0.24390
C1358       C  0.25394564  0.25380524  0.64483805    -0.23720
C1359       C  0.23017904  0.27631934  0.65807835     0.19290
C1360       C  0.20422325  0.29443778  0.64181639     0.24330
C1361       C  0.20070536  0.28933418  0.61215506    -0.23670
C1362       C  0.21677443  0.25912789  0.59982730     0.19230
F1363       F  0.21410191  0.25356440  0.57119460    -0.13620
F1364       F  0.26564711  0.21995040  0.60253295    -0.15990
F1365       F  0.18925587  0.32336655  0.65442777    -0.15990
F1366       F  0.23515191  0.28426413  0.68637497    -0.13620
C1367       C  0.31806737  0.30467551  0.98594303     0.24390
C1368       C  0.37061731  0.32751698  0.98897055    -0.23720
C1369       C  0.39654280  0.36793103  0.00727065     0.19290
C1370       C  0.36792765  0.38425680  0.52248675     0.24330
C1371       C  0.31519111  0.36071488  0.51864686    -0.23670
C1372       C  0.29157473  0.32176183  0.00120667     0.19230
F1373       F  0.24053834  0.29780185  0.99834555    -0.13620
F1374       F  0.29227846  0.26519717  0.96854390    -0.15990
F1375       F  0.39323360  0.42525481  0.53883781    -0.15990
F1376       F  0.44748661  0.39072148  0.01035265    -0.13620
C1377       C  0.28507506  0.43133740  0.92754866     0.24390
C1378       C  0.29970068  0.47625667  0.91305858    -0.23720
C1379       C  0.30527906  0.51682126  0.92848163     0.19290
C1380       C  0.29084807  0.51073865  0.95716262     0.24330
C1381       C  0.27040517  0.46373883  0.97079870    -0.23670
C1382       C  0.27078163  0.42508860  0.95602045     0.19230
F1383       F  0.25225162  0.37919031  0.96797802    -0.13620
F1384       F  0.27724803  0.39093815  0.91307418    -0.15990
F1385       F  0.29285265  0.54962875  0.97066181    -0.15990
F1386       F  0.31828482  0.56042096  0.91477044    -0.13620
C1387       C  0.22298578  0.45790721  0.67632119     0.24390
C1388       C  0.26911967  0.46659824  0.66591357    -0.23720
C1389       C  0.30520450  0.46781410  0.68506090     0.19290
C1390       C  0.29490099  0.46120334  0.71444798     0.24330
C1391       C  0.24744849  0.45064363  0.72439726    -0.23670
C1392       C  0.21193028  0.44919236  0.70479256     0.19230
F1393       F  0.16600679  0.44041676  0.71320441    -0.13620
F1394       F  0.18755769  0.45749984  0.65892793    -0.15990
F1395       F  0.33209468  0.46863689  0.73294668    -0.15990
F1396       F  0.35090656  0.47794534  0.67552975    -0.13620
C1397       C  0.98915026  0.32429770  0.49645418     0.24390
C1398       C  0.97145110  0.28699052  0.98219186    -0.23720
C1399       C  0.00234270  0.26803338  0.97405736     0.19290
C1400       C  0.05014133  0.28540535  0.98689596     0.24330
C1401       C  0.06631956  0.32169509  0.50247557    -0.23670
C1402       C  0.03412044  0.33863105  0.51064958     0.19230
F1403       F  0.04619344  0.37007308  0.53272281    -0.13620
F1404       F  0.96071211  0.34262540  0.50618597    -0.15990
F1405       F  0.07970568  0.26776645  0.97817160    -0.15990
F1406       F  0.98693546  0.23359581  0.95336269    -0.13620
C1407       C  0.06742081  0.41734202  0.63365389     0.24390
C1408       C  0.07789251  0.39540293  0.61102278    -0.23720
C1409       C  0.04070163  0.34763621  0.60242588     0.19290
C1410       C  0.99307851  0.32296524  0.61530894     0.24330
C1411       C  0.98138739  0.34558596  0.63722640    -0.23670
C1412       C  0.01969060  0.39266615  0.64670893     0.19230
F1413       F  0.01039634  0.41592897  0.66771103    -0.13620
F1414       F  0.10253572  0.46383266  0.64213842    -0.15990
F1415       F  0.95837416  0.27673817  0.60620069    -0.15990
F1416       F  0.05070742  0.32453993  0.58163812    -0.13620
C1417       C  0.41289540  0.85200334  0.79819577     0.24390
C1418       C  0.39346652  0.86228414  0.82221048    -0.23720
C1419       C  0.41724262  0.86725260  0.84876768     0.19290
C1420       C  0.46074821  0.86411234  0.85098970     0.24330
C1421       C  0.48127026  0.85569129  0.82673710    -0.23670
C1422       C  0.45590215  0.84824181  0.80045774     0.19230
F1423       F  0.47298301  0.83804658  0.77659911    -0.13620
F1424       F  0.39041626  0.84556651  0.77233124    -0.15990
F1425       F  0.48339585  0.87073986  0.87680156    -0.15990
F1426       F  0.39946176  0.87674225  0.87257594    -0.13620
C1427       C  0.26727814  0.65583237  0.79864164     0.24390
C1428       C  0.22067652  0.61326656  0.80561776    -0.23720
C1429       C  0.17722223  0.61668360  0.80676619     0.19290
C1430       C  0.18043209  0.66238955  0.80209835     0.24330
C1431       C  0.22759747  0.70591655  0.79729634    -0.23670
C1432       C  0.27099284  0.70229934  0.79531105     0.19230
F1433       F  0.31688730  0.74376739  0.79096959    -0.13620
F1434       F  0.30936583  0.65278092  0.79631597    -0.15990
F1435       F  0.13796333  0.66482436  0.80491185    -0.15990
F1436       F  0.13176761  0.57583556  0.81319503    -0.13620
C1437       C  0.31780552  0.08070672  0.79531841     0.24390
C1438       C  0.27330523  0.03825959  0.78611157    -0.23720
C1439       C  0.24368774  0.04457367  0.76521169     0.19290
C1440       C  0.26152307  0.09119377  0.75141126     0.24330
C1441       C  0.30892844  0.13251916  0.75855464    -0.23670
C1442       C  0.33452076  0.12742689  0.78228458     0.19230
F1443       F  0.38011523  0.16627231  0.78997075    -0.13620
F1444       F  0.34785053  0.07613891  0.81500087    -0.15990
F1445       F  0.23616612  0.09394927  0.72828634    -0.15990
F1446       F  0.20077075  0.00428040  0.75551435    -0.13620
C1447       C  0.33162987  0.05798444  0.88468823     0.24390
C1448       C  0.37185764  0.06735948  0.90307811    -0.23720
C1449       C  0.38589974  0.03155971  0.90696876     0.19290
C1450       C  0.36177541  0.98804568  0.89102226     0.24330
C1451       C  0.32182008  0.97936605  0.87265275    -0.23670
C1452       C  0.30546564  0.01333941  0.87062435     0.19230
F1453       F  0.26554972  0.00440311  0.85396182    -0.13620
F1454       F  0.31799449  0.09243699  0.87979604    -0.15990
F1455       F  0.37802133  0.95513689  0.89284379    -0.15990
F1456       F  0.42447909  0.04005296  0.92474759    -0.13620
C1457       C  0.38307534  0.83118915  0.56805807     0.24390
C1458       C  0.36901986  0.84918151  0.54400661    -0.23720
C1459       C  0.40252037  0.87004842  0.52105606     0.19290
C1460       C  0.44916128  0.87305389  0.52213611     0.24330
C1461       C  0.46319122  0.85513429  0.54614111    -0.23670
C1462       C  0.42993604  0.83442980  0.56915762     0.19230
F1463       F  0.44209818  0.81608311  0.59236548    -0.13620
F1464       F  0.35131179  0.80996021  0.59047516    -0.15990
F1465       F  0.48128986  0.89481720  0.49990396    -0.15990
F1466       F  0.39095441  0.88899642  0.49788475    -0.13620
C1467       C  0.21764480  0.66986897  0.53954196     0.24390
C1468       C  0.20080266  0.68791235  0.56131885    -0.23720
C1469       C  0.18929565  0.66364238  0.58801077     0.19290
C1470       C  0.19406654  0.62164500  0.59267130     0.24330
C1471       C  0.20934731  0.60267412  0.57045856    -0.23670
C1472       C  0.22162915  0.62782120  0.54396824     0.19230
F1473       F  0.23717556  0.61157496  0.52199248    -0.13620
F1474       F  0.23184283  0.69412096  0.01274721    -0.15990
F1475       F  0.18208339  0.59865327  0.61858541    -0.15990
F1476       F  0.17367046  0.68065113  0.60953637    -0.13620
C1477       C  0.25108282  0.97486873  0.97049539     0.24390
C1478       C  0.27808477  0.97494794  0.99519305    -0.23720
C1479       C  0.31299133  0.02080731  0.00690829     0.19290
C1480       C  0.31904135  0.06490107  0.99578627     0.24330
C1481       C  0.29327446  0.06577475  0.97074956    -0.23670
C1482       C  0.25957485  0.02002626  0.95801528     0.19230
F1483       F  0.23484770  0.01892710  0.93369073    -0.13620
F1484       F  0.21713990  0.93135060  0.95810255    -0.15990
F1485       F  0.35302919  0.10722784  0.00921399    -0.15990
F1486       F  0.36989336  0.01144492  0.51529749    -0.13620
C1487       C  0.24451305  0.02881843  0.62231754     0.24390
C1488       C  0.26966458  0.02033216  0.60061570    -0.23720
C1489       C  0.32273823  0.05102291  0.59878100     0.19290
C1490       C  0.35030939  0.08737712  0.61919292     0.24330
C1491       C  0.32549025  0.09364226  0.64212434    -0.23670
C1492       C  0.27198107  0.06456350  0.64299094     0.19230
F1493       F  0.24590139  0.06927120  0.66449152    -0.13620
F1494       F  0.19352402  0.00012366  0.62475115    -0.15990
F1495       F  0.40123599  0.11625099  0.61646820    -0.15990
F1496       F  0.34816344  0.04470315  0.57752628    -0.13620
C1497       C  0.22119217  0.73500531  0.94491374     0.24390
C1498       C  0.17948343  0.73463066  0.95701207    -0.23720
C1499       C  0.13523910  0.71741241  0.94079483     0.19290
C1500       C  0.13687229  0.71127415  0.91146769     0.24330
C1501       C  0.18325486  0.72562374  0.89848327    -0.23670
C1502       C  0.22298937  0.73040011  0.91565686     0.19230
F1503       F  0.26703028  0.74005995  0.90370398    -0.13620
F1504       F  0.26338945  0.74800106  0.96059989    -0.15990
F1505       F  0.09534136  0.69816993  0.89549295    -0.15990
F1506       F  0.09328464  0.71373628  0.95226082    -0.13620
C1507       C  0.21276926  0.90389461  0.69371854     0.24390
C1508       C  0.23941119  0.88561803  0.70923008    -0.23720
C1509       C  0.25244530  0.85385715  0.69611923     0.19290
C1510       C  0.24118884  0.84261968  0.66752041     0.24330
C1511       C  0.21704125  0.86323777  0.65174584    -0.23670
C1512       C  0.20188868  0.89292793  0.66528749     0.19230
F1513       F  0.17900461  0.91393691  0.65070281    -0.13620
F1514       F  0.19902668  0.93439067  0.70557802    -0.15990
F1515       F  0.25575653  0.81330752  0.65497637    -0.15990
F1516       F  0.27635798  0.83399961  0.71081527    -0.13620
C1517       C  0.57853570  0.47182238  0.92622940     0.24390
C1518       C  0.56409796  0.43588659  0.94816061    -0.23720
C1519       C  0.59138230  0.45031469  0.97413937     0.19290
C1520       C  0.63496734  0.49716236  0.97689973     0.24330
C1521       C  0.65276998  0.53070963  0.95384390    -0.23670
C1522       C  0.62288661  0.51871858  0.92896183     0.19230
F1523       F  0.63887583  0.55110071  0.90648641    -0.13620
F1524       F  0.55231703  0.46036235  0.90139158    -0.15990
F1525       F  0.66317168  0.50713320  0.00094907    -0.15990
F1526       F  0.57797969  0.41788448  0.99654219    -0.13620
C1527       C  0.91632947  0.52740038  0.94747024     0.24390
C1528       C  0.89564673  0.53697591  0.92275715    -0.23720
C1529       C  0.86969922  0.49769966  0.90359757     0.19290
C1530       C  0.85972429  0.44938806  0.91040902     0.24330
C1531       C  0.87611444  0.43871880  0.93643689    -0.23670
C1532       C  0.90703439  0.47911917  0.95412377     0.19230
F1533       F  0.92524722  0.47142520  0.97891886    -0.13620
F1534       F  0.94160168  0.56405902  0.96665392    -0.15990
F1535       F  0.83196068  0.41242990  0.89178619    -0.15990
F1536       F  0.84875464  0.50440080  0.87964938    -0.13620
C1537       C  0.75725710  0.74316397  0.49670056     0.24390
C1538       C  0.78281287  0.76541925  0.97192611    -0.23720
C1539       C  0.79831324  0.81631883  0.96885245     0.19290
C1540       C  0.78162378  0.83871652  0.98825596     0.24330
C1541       C  0.74727215  0.81176023  0.51080640    -0.23670
C1542       C  0.73956148  0.76391109  0.51559998     0.19230
F1543       F  0.71441345  0.73667174  0.53895503    -0.13620
F1544       F  0.74910317  0.69696054  0.50285151    -0.15990
F1545       F  0.79486852  0.88702921  0.98426292    -0.15990
F1546       F  0.82786049  0.84363689  0.94664197    -0.13620
C1547       C  0.77077024  0.74589404  0.87853756     0.24390
C1548       C  0.82251251  0.77288683  0.87262878    -0.23720
C1549       C  0.84487720  0.82270338  0.86286209     0.19290
C1550       C  0.81464131  0.84352908  0.85683760     0.24330
C1551       C  0.76226588  0.81519125  0.86161157    -0.23670
C1552       C  0.74142735  0.76699073  0.87372207     0.19230
F1553       F  0.69124327  0.73816404  0.87898147    -0.13620
F1554       F  0.74823468  0.69887837  0.88966926    -0.15990
F1555       F  0.83579420  0.88958607  0.84460053    -0.15990
F1556       F  0.89541145  0.85032900  0.85820487    -0.13620
C1557       C  0.03681652  0.81912024  0.89785312     0.24390
C1558       C  0.01050870  0.76651461  0.89934929    -0.23720
C1559       C  0.02939281  0.74120944  0.88468336     0.19290
C1560       C  0.07065363  0.76684365  0.86702707     0.24330
C1561       C  0.09684541  0.81901076  0.86472545    -0.23670
C1562       C  0.08022612  0.84539380  0.88062912     0.19230
F1563       F  0.10469954  0.89585007  0.87874667    -0.13620
F1564       F  0.01841734  0.84456968  0.91112902    -0.15990
F1565       F  0.08248245  0.73954178  0.85052522    -0.15990
F1566       F  0.00478048  0.69056516  0.88533047    -0.13620
C1567       C  0.97683931  0.82171859  0.50561281     0.24390
C1568       C  0.95415784  0.77335445  0.49484647    -0.23720
C1569       C  0.97920388  0.74686721  0.49646979     0.19290
C1570       C  0.02686366  0.76824036  0.50818524     0.24330
C1571       C  0.05156922  0.81769527  0.51779723    -0.23670
C1572       C  0.02571472  0.84393551  0.51733347     0.19230
F1573       F  0.04856114  0.89142310  0.52668670    -0.13620
F1574       F  0.95006770  0.84374754  0.00281026    -0.15990
F1575       F  0.04902051  0.74026244  0.50970031    -0.15990
F1576       F  0.95871194  0.70114324  0.48468479    -0.13620
C1577       C  0.56809595  0.44586192  0.64956790     0.24390
C1578       C  0.52569250  0.43116648  0.66660578    -0.23720
C1579       C  0.52946300  0.46046930  0.68976023     0.19290
C1580       C  0.57708422  0.49727323  0.69931130     0.24330
C1581       C  0.62064320  0.50531723  0.68523243    -0.23670
C1582       C  0.61552021  0.48261007  0.65889801     0.19230
F1583       F  0.65659347  0.49266310  0.64336550    -0.13620
F1584       F  0.56458911  0.41919437  0.62634662    -0.15990
F1585       F  0.58058867  0.52089570  0.72385202    -0.15990
F1586       F  0.48830866  0.44811768  0.70582619    -0.13620
C1587       C  0.78044808  0.42802849  0.69771204     0.24390
C1588       C  0.82048231  0.47472764  0.68939814    -0.23720
C1589       C  0.86466273  0.47970710  0.67794498     0.19290
C1590       C  0.86766835  0.43767911  0.67334309     0.24330
C1591       C  0.82729296  0.39072464  0.68116993    -0.23670
C1592       C  0.78452740  0.38616426  0.69441499     0.19230
F1593       F  0.74631064  0.34118890  0.70340096    -0.13620
F1594       F  0.73754290  0.42310653  0.70859891    -0.15990
F1595       F  0.91011925  0.44280461  0.66161114    -0.15990
F1596       F  0.90370933  0.52501849  0.66973556    -0.13620
C1597       C  0.71296555  0.69495679  0.75588498     0.24390
C1598       C  0.76002428  0.72102322  0.74154200    -0.23720
C1599       C  0.78164745  0.77227150  0.73610727     0.19290
C1600       C  0.75781966  0.79710023  0.74574900     0.24330
C1601       C  0.71131032  0.77084551  0.76024237    -0.23670
C1602       C  0.68884458  0.71955502  0.76475772     0.19230
F1603       F  0.64570958  0.69381763  0.78017545    -0.13620
F1604       F  0.69049429  0.64560108  0.76246800    -0.15990
F1605       F  0.78130013  0.84722770  0.74196278    -0.15990
F1606       F  0.82626558  0.79859336  0.72214124    -0.13620
C1607       C  0.72083136  0.71262044  0.65094538     0.24390
C1608       C  0.70932998  0.66564602  0.64134930    -0.23720
C1609       C  0.68391574  0.64837886  0.61525599     0.19290
C1610       C  0.67050738  0.67755421  0.59905338     0.24330
C1611       C  0.68298229  0.72494691  0.60834188    -0.23670
C1612       C  0.70806528  0.74220334  0.63445078     0.19230
F1613       F  0.71894995  0.78705896  0.64440899    -0.13620
F1614       F  0.74535132  0.73046515  0.67595963    -0.15990
F1615       F  0.64578694  0.65951487  0.57404989    -0.15990
F1616       F  0.67142037  0.60290189  0.60544694    -0.13620
C1617       C  0.01460261  0.77886303  0.65806352     0.24390
C1618       C  0.96609191  0.75554264  0.64556417    -0.23720
C1619       C  0.96282837  0.75321224  0.61568172     0.19290
C1620       C  0.00615987  0.77018936  0.59898356     0.24330
C1621       C  0.05444804  0.79078742  0.61147745    -0.23670
C1622       C  0.05816974  0.79595291  0.64122438     0.19230
F1623       F  0.10322316  0.81288554  0.65433868    -0.13620
F1624       F  0.01953855  0.78025668  0.68678929    -0.15990
F1625       F  0.00044368  0.76474425  0.57045633    -0.15990
F1626       F  0.91689246  0.73069038  0.60268904    -0.13620
C1627       C  0.03956105  0.70011327  0.71697681     0.24390
C1628       C  0.99048790  0.68303838  0.72701435    -0.23720
C1629       C  0.98479780  0.69767449  0.75438309     0.19290
C1630       C  0.02650227  0.72783538  0.77114526     0.24330
C1631       C  0.07504663  0.74581050  0.76086494    -0.23670
C1632       C  0.08169918  0.73200266  0.73370089     0.19230
F1633       F  0.12891769  0.74957977  0.72341649    -0.13620
F1634       F  0.04680288  0.68747056  0.69081419    -0.15990
F1635       F  0.01941840  0.74230771  0.79683485    -0.15990
F1636       F  0.93885345  0.68493630  0.76484447    -0.13620
C1637       C  0.74081425  0.54695569  0.80061920     0.24390
C1638       C  0.78810013  0.56745316  0.78706691    -0.23720
C1639       C  0.83039263  0.57863672  0.80398366     0.19290
C1640       C  0.82659748  0.57313745  0.83369296     0.24330
C1641       C  0.78017808  0.55625192  0.84767311    -0.23670
C1642       C  0.73706161  0.54206358  0.83059454     0.19230
F1643       F  0.69181360  0.52655899  0.84304863    -0.13620
F1644       F  0.69901084  0.53603350  0.78510849    -0.15990
F1645       F  0.86983081  0.58903030  0.84864438    -0.15990
F1646       F  0.87645450  0.59774298  0.79180309    -0.13620
C1647       C  0.87401271  0.60635431  0.54404019     0.24390
C1648       C  0.82650058  0.57656655  0.53071953    -0.23720
C1649       C  0.78682128  0.53960507  0.54718622     0.19290
C1650       C  0.79264460  0.53720413  0.57679642     0.24330
C1651       C  0.83847589  0.57107717  0.59045443    -0.23670
C1652       C  0.87995852  0.60361010  0.57357290     0.19230
F1653       F  0.92447763  0.63692350  0.58593863    -0.13620
F1654       F  0.91386603  0.64130602  0.52875389    -0.15990
F1655       F  0.75177895  0.50507754  0.59259080    -0.15990
F1656       F  0.74076260  0.50976093  0.53528830    -0.13620
loop_ 
_geom_bond_atom_site_label_1 
_geom_bond_atom_site_label_2 
_geom_bond_distance 
_geom_bond_site_symmetry_2 
_ccdc_geom_bond_type 
O1            C9   1.271       .  A
O1          Co21   2.045       .  S
O2           C10   1.250       .  A
O2          Co22   1.951       .  S
O3           C11   1.252       .  A
O3          Co23   1.961       .  S
O4           C12   1.278       .  A
O4          Co24   2.060       .  S
O5           C11   1.253       .  A
O5          Co22   1.983       .  S
O6           C12   1.250       .  A
O6          Co21   1.935       .  S
O7           C10   1.272       .  A
O7          Co24   2.024       .  S
O8            C9   1.253       .  A
O8          Co23   1.957       .  S
C9          C823   1.486       .  S
C10         C770   1.481       .  S
C11         C780   1.470       .  S
C12         C790   1.494       .  S
O13          C26   1.275       .  A
O13         Co21   1.979       .  S
O14          C27   1.268       .  A
O14         Co22   1.922       .  S
O15          C28   1.269       .  A
O15         Co23   2.006       .  S
O16          C29   1.280       .  A
O16         Co24   2.044       .  S
O17          C29   1.271       .  A
O17         Co22   1.992       .  S
O18          C28   1.251       .  A
O18         Co21   1.946       .  S
O19          C26   1.265       .  A
O19         Co24   1.990       .  S
O20          C27   1.281       .  A
O20         Co23   2.030       .  S
Co21         O25   1.990       .  S
Co22         O25   1.970       .  S
Co23         O25   2.127       .  S
Co24         O25   2.120       .  S
C26         C800   1.482       .  S
C27         C753   1.470       .  S
C28         C760   1.441       .  S
C29         C810   1.500       .  S
O30          C38   1.257       .  A
O30         Co50   1.911       .  S
O31          C39   1.244       .  A
O31         Co51   1.945       .  S
O32          C40   1.236       .  A
O32         Co52   1.951       .  S
O33          C41   1.250       .  A
O33         Co53   1.961       .  S
O34          C40   1.258       .  A
O34         Co51   2.083       .  S
O35          C41   1.255       .  A
O35         Co50   2.026       .  S
O36          C39   1.267       .  A
O36         Co53   2.033       .  S
O37          C38   1.297       .  A
O37         Co52   2.099       .  S
C38         C720   1.472       .  S
C39         C693   1.471       .  S
C40         C813   1.506       .  S
C41         C710   1.480       .  S
O42          C55   1.273       .  A
O42         Co50   1.984       .  S
O43          C56   1.245       .  A
O43         Co51   1.919       .  S
O44          C57   1.255       .  A
O44         Co52   1.979       .  S
O45          C58   1.247       .  A
O45         Co53   1.950       .  S
O46          C58   1.272       .  A
O46         Co51   2.056       .  S
O47          C57   1.267       .  A
O47         Co50   2.001       .  S
O48          C55   1.262       .  A
O48         Co53   2.017       .  S
O49          C56   1.297       .  A
O49         Co52   2.139       .  S
Co50         O54   2.018       .  S
Co51         O54   2.132       .  S
Co52         O54   2.151       .  S
Co53         O54   2.105       .  S
C55        C1568   1.447       .  S
C56         C700   1.504       .  S
C57         C730   1.469   1_655  S
C58        C1648   1.496       .  S
O59          C67   1.249       .  A
O59         Co79   1.953       .  S
O60          C68   1.288       .  A
O60         Co80   2.044       .  S
O61          C69   1.274       .  A
O61         Co81   1.940       .  S
O62          C70   1.256       .  A
O62        Co910   1.852       .  S
O63          C69   1.282       .  A
O63         Co80   2.045       .  S
O64          C70   1.298       .  A
O64        Co907   2.123       .  S
O65          C68   1.263       .  A
O65         Co82   1.950       .  S
O66          C67   1.265       .  A
O66         Co81   2.022       .  S
C67         C743   1.468       .  S
C68        C1478   1.492   1_554  S
C69         C660   1.493   1_565  S
C70         C670   1.471       .  S
O71          C84   1.270       .  A
O71         Co79   1.971       .  S
O72          C85   1.266       .  A
O72         Co80   1.933       .  S
O73          C86   1.293       .  A
O73         Co81   2.057       .  S
O74          C87   1.256       .  A
O74         Co82   2.008       .  S
O75          C87   1.247       .  A
O75         Co80   1.959       .  S
O76          C86   1.277       .  A
O76         Co79   2.034       .  S
O77          C84   1.276       .  A
O77         Co82   2.039       .  S
O78          C85   1.291       .  A
O78         Co81   2.033       .  S
Co79        O892   2.126       .  S
Co79         O83   2.080       .  S
Co80         O83   2.055       .  S
Co81         O83   1.955       .  S
Co82        O890   1.852   1_554  S
Co82         O83   1.916       .  S
C84         C640   1.484       .  S
C85         C683   1.455       .  S
C86         C793   1.505       .  S
C87         C630   1.476       .  S
O88          C96   1.264       .  A
O88        Co108   1.991       .  S
O89          C97   1.265       .  A
O89        Co109   1.984       .  S
O90          C98   1.272       .  A
O90        Co110   1.987       .  S
O91          C99   1.252       .  A
O91        Co111   2.059       .  S
O92          C98   1.270       .  A
O92        Co109   1.956       .  S
O93          C99   1.229       .  A
O93        Co108   1.956       .  S
O94          C97   1.260       .  A
O94        Co111   1.979       .  S
O95          C96   1.256       .  A
O95        Co110   1.973       .  S
C96         C803   1.461       .  S
C97         C590   1.473       .  S
C98         C680   1.460       .  S
C99         C603   1.465       .  S
O100        C113   1.295       .  A
O100       Co108   2.018       .  S
O101        C114   1.273       .  A
O101       Co109   2.018       .  S
O102        C115   1.272       .  A
O102       Co110   2.036       .  S
O103        C116   1.271       .  A
O103       Co111   1.977       .  S
O104        C116   1.277       .  A
O104       Co109   2.004       .  S
O105        C115   1.253       .  A
O105       Co108   1.960       .  S
O106        C113   1.290       .  A
O106       Co111   1.953       .  S
O107        C114   1.266       .  A
O107       Co110   1.979       .  S
Co108       O112   1.993       .  S
Co109       O112   2.012       .  S
Co110       O112   2.038       .  S
Co111       O112   2.043       .  S
C113        C673   1.473       .  S
C114        C610   1.484   1_565  S
C115        C733   1.474       .  S
C116        C623   1.446       .  S
O117        C125   1.293       .  A
O117       Co137   2.071       .  S
O118        C126   1.269       .  A
O118       Co138   1.981       .  S
O119        C127   1.267       .  A
O119       Co139   2.004       .  S
O120        C128   1.263       .  A
O120       Co968   2.018       .  S
O121        C127   1.271       .  A
O121       Co138   1.984       .  S
O122        C956   1.258   1_554  A
O122       Co137   1.974       .  S
O123        C126   1.270       .  A
O123       Co140   2.004       .  S
O124        C125   1.266       .  A
O124       Co139   1.919       .  S
C125        C643   1.490       .  S
C126        C543   1.481       .  S
C127        C520   1.491       .  S
C128        O950   1.257       .  A
C128        C553   1.485       .  S
O129        C142   1.287       .  A
O129       Co137   2.050       .  S
O130        C143   1.256       .  A
O130       Co138   1.985       .  S
O131        C144   1.251       .  A
O131       Co139   1.966       .  S
O132        C145   1.280       .  A
O132       Co140   1.998       .  S
O133        C145   1.274       .  A
O133       Co138   1.995       .  S
O134        C144   1.262       .  A
O134       Co137   2.011       .  S
O135        C142   1.275       .  A
O135       Co140   1.937       .  S
O136        C143   1.252       .  A
O136       Co139   1.954       .  S
Co137       O141   2.181       .  S
Co138       O141   2.039       .  S
Co139       O141   1.937       .  S
Co140       O948   2.026       .  S
Co140       O141   1.975       .  S
C142        C573   1.487       .  S
C143        C560   1.467       .  S
C144        C580   1.478       .  S
C145        C533   1.474       .  S
O146        C154   1.245       .  A
O146       Co166   1.970       .  S
O147        C155   1.279       .  A
O147       Co167   1.944       .  S
O148        C156   1.293       .  A
O148       Co168   2.064       .  S
O149        C157   1.310       .  A
O149       Co169   2.108       .  S
O150        C156   1.277       .  A
O150       Co167   1.951       .  S
O151        C157   1.256       .  A
O151       Co166   1.911       .  S
O152        C155   1.309       .  A
O152       Co169   2.102       .  S
O153        C154   1.255       .  A
O153       Co168   2.000       .  S
C154        C600   1.465       .  S
C155        C490   1.503       .  S
C156        C470   1.495       .  S
C157        C563   1.470       .  S
O158        C171   1.265       .  A
O158       Co166   1.996       .  S
O159        C172   1.268       .  A
O159       Co167   2.025       .  S
O160        C173   1.277       .  A
O160       Co168   1.964       .  S
O161        C174   1.270       .  A
O161       Co169   1.958       .  S
O162        C174   1.280       .  A
O162       Co167   2.076       .  S
O163        C173   1.290       .  A
O163       Co166   2.055       .  S
O164        C171   1.260       .  A
O164       Co169   1.981       .  S
O165        C172   1.257       .  A
O165       Co168   1.953       .  S
Co166       O170   2.001       .  S
Co167       O170   2.007       .  S
Co168       O170   2.006       .  S
Co169       O170   1.995       .  S
C171        C503   1.482       .  S
C172        C550   1.460       .  S
C173        C513   1.493       .  S
C174        C483   1.494       .  S
O175        C183   1.260       .  A
O175       Co195   2.011       .  S
O176        C184   1.277       .  A
O176       Co196   2.031       .  S
O177        C185   1.277       .  A
O177       Co197   2.028       .  S
O178        C186   1.253       .  A
O178       Co198   2.057       .  S
O179        C185   1.269       .  A
O179       Co196   1.989       .  S
O180        C186   1.218       .  A
O180       Co195   1.938       .  S
O181        C184   1.259       .  A
O181       Co198   1.980       .  S
O182        C183   1.256       .  A
O182       Co197   1.959       .  S
C183        C750   1.457       .  S
C184        C663   1.498       .  S
C185        C443   1.495       .  S
C186        C460   1.453       .  S
O187        C200   1.291       .  A
O187       Co195   2.004       .  S
O188        C201   1.276       .  A
O188       Co196   2.045       .  S
O189        C202   1.282       .  A
O189       Co197   2.065       .  S
O190        C203   1.283       .  A
O190       Co198   2.025       .  S
O191        C203   1.272       .  A
O191       Co196   1.989       .  S
O192        C202   1.267       .  A
O192       Co195   1.947       .  S
O193        C200   1.289       .  A
O193       Co198   2.001       .  S
O194        C201   1.244       .  A
O194       Co197   1.881       .  S
Co195       O199   2.034       .  S
Co196       O199   2.051       .  S
Co197       O199   2.049       .  S
Co198       O199   2.083       .  S
C200        C530   1.491       .  S
C201        C453   1.468       .  S
C202        C493   1.497       .  S
C203        C613   1.488       .  S
O204        C212   1.294       .  A
O204       Co224   2.000       .  S
O205        C213   1.250       .  A
O205       Co225   1.987       .  S
O206        C214   1.274       .  A
O206       Co226   1.986       .  S
O207        C215   1.266       .  A
O207       Co227   1.972       .  S
O208        C214   1.282       .  A
O208       Co225   2.020       .  S
O209        C215   1.269       .  A
O209       Co224   2.011       .  S
O210        C213   1.240       .  A
O210       Co227   1.942       .  S
O211        C212   1.279       .  A
O211       Co226   1.957       .  S
C212        C690   1.490       .  S
C213        C620   1.455       .  S
C214        C430   1.492       .  S
C215        C450   1.468       .  S
O216        C229   1.283       .  A
O216       Co224   2.009       .  S
O217        C230   1.237       .  A
O217       Co225   1.931       .  S
O218        C231   1.233       .  A
O218       Co226   1.983       .  S
O219        C232   1.280       .  A
O219       Co227   2.075       .  S
O220        C232   1.244       .  A
O220       Co225   1.937       .  S
O221        C231   1.242       .  A
O221       Co224   2.014       .  S
O222        C229   1.282       .  A
O222       Co227   2.000       .  S
O223        C230   1.252       .  A
O223       Co226   1.991       .  S
Co224       O228   2.053       .  S
Co225       O228   2.036       .  S
Co226       O228   2.039       .  S
Co227       O228   2.070       .  S
C229        C480   1.490       .  S
C230       C1291   1.482       .  S
C231        C540   1.465       .  S
C232        C653   1.491       .  S
O233        C241   1.257       .  A
O233       Co253   1.857       .  S
O234        C242   1.308       .  A
O234       Co254   2.104       .  S
O235        C243   1.281       .  A
O235       Co255   2.028       .  S
O236        C244   1.259       .  A
O236       Co256   2.058       .  S
O237        C243   1.277       .  A
O237       Co254   1.991       .  S
O238        C244   1.239       .  A
O238       Co253   1.939       .  S
O239        C242   1.269       .  A
O239       Co256   1.863       .  S
O240        C241   1.296       .  A
O240       Co255   2.099       .  S
C241        C783   1.468       .  S
C242        C633   1.469       .  S
C243        C420   1.505       .  S
C244        C523   1.485       .  S
O245       C1086   1.294   1_554  A
O245       Co253   2.064       .  S
O246        C259   1.265       .  A
O246       Co254   2.013       .  S
O247        C260   1.266       .  A
O247       Co255   2.003       .  S
O248        C261   1.260       .  A
O248       Co256   1.958       .  S
O249        C261   1.269       .  A
O249       Co254   2.010       .  S
O250        C260   1.285       .  A
O250       Co253   2.020       .  S
O251       C1086   1.264   1_554  A
O251       Co256   1.978       .  S
O252        C259   1.258       .  A
O252       Co255   1.987       .  S
Co253       O257   1.904       .  S
Co254       O257   2.133       .  S
Co255       O257   2.109       .  S
Co256       O257   1.925       .  S
C258       O1073   1.295       .  A
C258       O1079   1.266       .  A
C258        C413   1.475       .  S
C259        C390   1.481   1_565  S
C260        C713   1.486       .  S
C261        C400   1.489   1_554  S
O262        C270   1.277       .  A
O262       Co282   1.985       .  S
O263        C271   1.278       .  A
O263       Co283   2.037       .  S
O264        C272   1.284       .  A
O264       Co284   1.927       .  S
O265        C273   1.234       .  A
O265       Co285   1.914       .  S
O266        C272   1.286       .  A
O266       Co283   2.041       .  S
O267        C273   1.264       .  A
O267       Co282   2.076       .  S
O268        C271   1.255       .  A
O268       Co285   1.957       .  S
O269        C270   1.291       .  A
O269       Co284   2.011       .  S
C270        C723   1.480       .  S
C271        C370   1.496       .  S
C272        C380   1.474   1_565  S
C273        C410   1.487       .  S
O274        C287   1.272       .  A
O274       Co282   1.938       .  S
O275        C288   1.250       .  A
O275       Co283   1.967       .  S
O276        C289   1.265       .  A
O276       Co284   1.970       .  S
O277        C290   1.260       .  A
O277       Co285   2.009       .  S
O278        C290   1.247       .  A
O278       Co283   1.949       .  S
O279        C289   1.279       .  A
O279       Co282   1.997       .  S
O280        C287   1.295       .  A
O280       Co285   2.080       .  S
O281        C288   1.265       .  A
O281       Co284   2.077       .  S
Co282       O286   2.055       .  S
Co283       O286   2.066       .  S
Co284       O286   1.989       .  S
Co285       O286   2.043       .  S
C287        C473   1.494       .  S
C288        C423   1.501       .  S
C289        C773   1.465       .  S
C290        C593   1.474       .  S
O291        C299   1.238       .  A
O291       Co311   1.948       .  S
O292        C300   1.276       .  A
O292       Co312   2.009       .  S
O293        C301   1.301       .  A
O293       Co313   2.096       .  S
O294        C302   1.266       .  A
O294       Co314   2.110       .  S
O295        C301   1.281       .  A
O295       Co312   1.964       .  S
O296        C302   1.232       .  A
O296       Co311   1.929       .  S
O297        C300   1.254       .  A
O297       Co314   1.962       .  S
O298        C299   1.251       .  A
O298       Co313   1.990       .  S
C299        C763   1.448       .  S
C300        C383   1.474       .  S
C301        C440   1.507       .  S
C302        C350   1.471       .  S
O303        C316   1.306       .  A
O303       Co311   2.128       .  S
O304        C317   1.257       .  A
O304       Co312   2.045       .  S
O305        C318   1.264       .  A
O305       Co313   1.963       .  S
O306        C319   1.289       .  A
O306       Co314   2.000       .  S
O307        C319   1.287       .  A
O307       Co312   2.024       .  S
O308        C318   1.277       .  A
O308       Co311   2.036       .  S
O309        C316   1.276       .  A
O309       Co314   1.898       .  S
O310        C317   1.239       .  A
O310       Co313   1.932       .  S
Co311       O315   2.081       .  S
Co312       O315   2.068       .  S
Co313       O315   2.044       .  S
Co314       O315   1.965       .  S
C316        C500   1.474       .  S
C317        C363   1.473       .  S
C318        C583   1.491       .  S
C319        C393   1.477       .  S
O320        C328   1.270       .  A
O320       Co340   1.958       .  S
O321        C329   1.269       .  A
O321       Co341   2.001       .  S
O322        C330   1.284       .  A
O322       Co342   2.065       .  S
O323        C331   1.273       .  A
O323      Co1171   2.006       .  S
O324        C330   1.252       .  A
O324       Co341   1.939       .  S
O325       C1159   1.286       .  A
O325       Co340   1.980       .  S
O326        C329   1.262       .  A
O326       Co343   1.973       .  S
O327        C328   1.284       .  A
O327       Co342   2.074       .  S
C328        C703   1.515       .  S
C329        C403   1.475       .  S
C330        C433   1.479       .  S
C331       O1153   1.274       .  A
C331        C360   1.490   1_556  S
O332        C345   1.261       .  A
O332       Co340   1.970       .  S
O333        C346   1.281       .  A
O333       Co341   2.065       .  S
O334        C347   1.279       .  A
O334       Co342   1.921       .  S
O335        C348   1.289       .  A
O335       Co343   2.035       .  S
O336        C348   1.267       .  A
O336       Co341   1.967       .  S
O337        C347   1.297       .  A
O337       Co340   2.104       .  S
O338        C345   1.271       .  A
O338       Co343   2.012       .  S
O339        C346   1.249       .  A
O339       Co342   1.923       .  S
Co340       O344   1.983       .  S
Co341       O344   2.021       .  S
Co342       O344   2.021       .  S
Co343      O1151   2.035       .  S
Co343       O344   2.033       .  S
C345        C570   1.502       .  S
C346        C353   1.489       .  S
C347        C510   1.497       .  S
C348        C373   1.489       .  S
C349        C350   1.395       .  A
C349        C354   1.390       .  A
C349        F356   1.353       .  S
C350        C351   1.409       .  A
C351        C352   1.406       .  A
C351        F358   1.357       .  S
C352        C353   1.408       .  A
C352        F357   1.357       .  S
C353        C354   1.416       .  A
C354        F355   1.359       .  S
C359        C360   1.415       .  A
C359        C364   1.398       .  A
C359        F366   1.356       .  S
C360        C361   1.406       .  A
C361        C362   1.405       .  A
C361        F368   1.358       .  S
C362        C363   1.410       .  A
C362        F367   1.358       .  S
C363        C364   1.395       .  A
C364        F365   1.357       .  S
C369        C370   1.419   1_545  A
C369        C374   1.413       .  A
C369        F376   1.358   1_545  S
C370        C371   1.399   1_565  A
C371        C372   1.393       .  A
C371        F378   1.357       .  S
C372        C373   1.415       .  A
C372        F377   1.353       .  S
C373        C374   1.405       .  A
C374        F375   1.357       .  S
C379        C380   1.418       .  A
C379        C384   1.386       .  A
C379        F386   1.355       .  S
C380        C381   1.397       .  A
C381        C382   1.397       .  A
C381        F388   1.358       .  S
C382        C383   1.420       .  A
C382        F387   1.358       .  S
C383        C384   1.395       .  A
C384        F385   1.358       .  S
C389        C390   1.406       .  A
C389        C394   1.411       .  A
C389        F396   1.357       .  S
C390        C391   1.403       .  A
C391        C392   1.398       .  A
C391        F398   1.357   1_545  S
C392        C393   1.406       .  A
C392        F397   1.358       .  S
C393        C394   1.407       .  A
C394        F395   1.356       .  S
C399        C400   1.412       .  A
C399       C1232   1.400   1_565  A
C399       F1234   1.358       .  S
C400        C401   1.413   1_566  A
C401        C402   1.400   1_554  A
C401        F408   1.358       .  S
C402       C1231   1.399       .  A
C402        F407   1.357       .  S
C403        C404   1.410       .  A
C403       C1230   1.400       .  A
C404       C1227   1.392   1_545  A
C404        F405   1.357       .  S
F406       C1227   1.358       .  S
C409        C410   1.412       .  A
C409        C414   1.389       .  A
C409        F416   1.359       .  S
C410        C411   1.409       .  A
C411        C412   1.414       .  A
C411        F418   1.357       .  S
C412        C413   1.409       .  A
C412        F417   1.357       .  S
C413        C414   1.394       .  A
C414        F415   1.354       .  S
C419        C420   1.413       .  A
C419        C424   1.397       .  A
C419        F426   1.357       .  S
C420        C421   1.413       .  A
C421        C422   1.411       .  A
C421        F428   1.357       .  S
C422        C423   1.413       .  A
C422        F427   1.357       .  S
C423        C424   1.409       .  A
C424        F425   1.356       .  S
C429        C430   1.410       .  A
C429        C434   1.409       .  A
C429        F436   1.358       .  S
C430        C431   1.406       .  A
C431        C432   1.403       .  A
C431        F438   1.358       .  S
C432        C433   1.409       .  A
C432        F437   1.358       .  S
C433        C434   1.408       .  A
C434        F435   1.358       .  S
C439        C440   1.414       .  A
C439        C444   1.415       .  A
C439        F446   1.357       .  S
C440        C441   1.413       .  A
C441        C442   1.405       .  A
C441        F448   1.358       .  S
C442        C443   1.405       .  A
C442        F447   1.358       .  S
C443        C444   1.408       .  A
C444        F445   1.356       .  S
C449        C450   1.400       .  A
C449        C454   1.377       .  A
C449        F456   1.360       .  S
C450        C451   1.412       .  A
C451        C452   1.414       .  A
C451        F458   1.355       .  S
C452        C453   1.406       .  A
C452        F457   1.357       .  S
C453        C454   1.407       .  A
C454        F455   1.359       .  S
C459        C460   1.389       .  A
C459        C464   1.382       .  A
C459        F466   1.356       .  S
C460        C461   1.409       .  A
C461        C462   1.403       .  A
C461        F468   1.357       .  S
C462        C463   1.400       .  A
C462        F467   1.357       .  S
C463       C1058   1.465       .  S
C463        C464   1.414       .  A
C464        F465   1.357       .  S
C469        C470   1.414       .  A
C469        C474   1.410       .  A
C469        F476   1.357       .  S
C470        C471   1.409       .  A
C471        C472   1.392       .  A
C471        F478   1.359       .  S
C472        C473   1.412       .  A
C472        F477   1.359       .  S
C473        C474   1.410       .  A
C474        F475   1.357       .  S
C479        C480   1.414       .  A
C479        C484   1.417       .  A
C479        F486   1.357       .  S
C480        C481   1.403       .  A
C481        C482   1.387       .  A
C481        F488   1.359       .  S
C482        C483   1.412       .  A
C482        F487   1.358       .  S
C483        C484   1.410       .  A
C484        F485   1.357       .  S
C489        C490   1.411       .  A
C489        C494   1.387       .  A
C489        F496   1.357       .  S
C490        C491   1.416       .  A
C491        C492   1.419       .  A
C491        F498   1.357       .  S
C492        C493   1.412       .  A
C492        F497   1.357       .  S
C493        C494   1.400       .  A
C494        F495   1.350       .  S
C499        C500   1.407       .  A
C499        C504   1.407   1_655  A
C499        F506   1.356       .  S
C500        C501   1.398   1_655  A
C501        C502   1.398       .  A
C501        F508   1.358       .  S
C502        C503   1.407       .  A
C502        F507   1.351       .  S
C503        C504   1.405       .  A
C504        F505   1.358       .  S
C509        C510   1.412       .  A
C509        C514   1.395   1_655  A
C509        F516   1.355       .  S
C510        C511   1.410       .  A
C511        C512   1.413   1_655  A
C511        F518   1.357       .  S
C512        C513   1.413       .  A
C512        F517   1.357       .  S
C513        C514   1.405       .  A
C514        F515   1.359       .  S
C519        C520   1.416       .  A
C519        C524   1.407       .  A
C519        F526   1.357       .  S
C520        C521   1.408       .  A
C521        C522   1.389       .  A
C521        F528   1.358       .  S
C522        C523   1.410       .  A
C522        F527   1.359       .  S
C523        C524   1.406       .  A
C524        F525   1.357       .  S
C529        C530   1.404       .  A
C529        C534   1.404       .  A
C529        F536   1.356       .  S
C530        C531   1.409       .  A
C531        C532   1.405       .  A
C531        F538   1.351       .  S
C532        C533   1.404       .  A
C532        F537   1.358       .  S
C533        C534   1.409       .  A
C534        F535   1.358       .  S
C539        C540   1.401       .  A
C539        C544   1.401       .  A
C539        F546   1.358       .  S
C540        C541   1.401       .  A
C541       C1370   1.398       .  A
C541        F548   1.358       .  S
C542        C543   1.409       .  A
C542       C1369   1.398       .  A
C542        F547   1.358       .  S
C543       C1372   1.410       .  A
C544       C1371   1.412       .  A
C544        F545   1.358       .  S
C549        C550   1.397       .  A
C549        C554   1.390       .  A
C549        F556   1.355       .  S
C550        C551   1.405       .  A
C551        C552   1.402       .  A
C551        F558   1.358       .  S
C552        C553   1.409       .  A
C552        F557   1.358       .  S
C553        C554   1.412       .  A
C554        F555   1.356       .  S
C559        C560   1.400       .  A
C559        C564   1.379       .  A
C559        F566   1.355       .  S
C560        C561   1.407       .  A
C561        C562   1.408       .  A
C561        F568   1.357       .  S
C562        C563   1.407       .  A
C562        F567   1.353       .  S
C563        C564   1.406       .  A
C564        F565   1.360       .  S
C569        C574   1.387   1_655  A
C569       C1398   1.407   1_554  A
C569        F576   1.359       .  S
C570        C571   1.416   1_655  A
C570       C1397   1.412       .  A
C571        C572   1.420       .  A
C571        F578   1.357   1_455  S
C572       C1401   1.410       .  A
C572        F577   1.357       .  S
C573        C574   1.408       .  A
C573       C1400   1.406   1_554  A
C574        F575   1.356       .  S
C579        C580   1.405       .  A
C579        C584   1.404       .  A
C579        F586   1.358       .  S
C580        C581   1.403       .  A
C581        C582   1.401   1_455  A
C581        F588   1.357       .  S
C582        C583   1.412       .  A
C582        F587   1.358       .  S
C583        C584   1.411   1_655  A
C584        F585   1.357       .  S
C589        C590   1.405       .  A
C589        C594   1.391       .  A
C589        F596   1.358       .  S
C590        C591   1.409       .  A
C591        C592   1.394       .  A
C591        F598   1.358       .  S
C592        C593   1.406       .  A
C592        F597   1.358       .  S
C593        C594   1.410       .  A
C594        F595   1.358       .  S
C599        C600   1.406       .  A
C599        C604   1.401       .  A
C599        F606   1.356       .  S
C600        C601   1.399       .  A
C601        C602   1.392       .  A
C601        F608   1.358       .  S
C602        C603   1.408       .  A
C602        F607   1.359       .  S
C603        C604   1.402       .  A
C604        F605   1.356       .  S
C609        C610   1.398       .  A
C609        C614   1.397       .  A
C609        F616   1.358       .  S
C610        C611   1.411       .  A
C611        C612   1.413       .  A
C611        F618   1.358       .  S
C612        C613   1.409       .  A
C612        F617   1.358       .  S
C613        C614   1.411       .  A
C614        F615   1.349       .  S
C619        C620   1.408       .  A
C619        C624   1.386       .  A
C619        F626   1.358       .  S
C620        C621   1.400       .  A
C621        C622   1.396   1_545  A
C621        F628   1.357       .  S
C622        C623   1.405       .  A
C622        F627   1.358       .  S
C623        C624   1.394   1_565  A
C624        F625   1.357   1_545  S
C629        C630   1.412       .  A
C629        C634   1.395       .  A
C629        F636   1.358       .  S
C630        C631   1.405       .  A
C631        C632   1.395       .  A
C631        F638   1.358   1_554  S
C632        C633   1.408       .  A
C632        F637   1.358   1_554  S
C633        C634   1.401       .  A
C634        F635   1.358       .  S
C639        C640   1.407       .  A
C639        C644   1.394       .  A
C639       F1474   1.357       .  S
C640        C641   1.406       .  A
C641        C642   1.408       .  A
C641        F648   1.357       .  S
C642        C643   1.413       .  A
C642        F647   1.357       .  S
C643        C644   1.408       .  A
C644        F645   1.358       .  S
F646       C1467   1.358       .  S
C649        C650   1.419       .  A
C649        C654   1.413   1_565  A
C649        F656   1.357       .  S
C650        C896   1.487       .  S
C650        C651   1.398   1_565  A
C651        C652   1.383       .  A
C651       F1486   1.359       .  S
C652        C653   1.418       .  A
C652        F657   1.358       .  S
C653        C654   1.404       .  A
C654        F655   1.357       .  S
F658       C1479   1.354       .  S
C659        C660   1.403       .  A
C659        C664   1.407       .  A
C659        F666   1.357       .  S
C660        C661   1.415       .  A
C661        C662   1.400       .  A
C661        F668   1.354       .  S
C662        C663   1.403       .  A
C662        F667   1.358       .  S
C663        C664   1.420       .  A
C664        F665   1.358       .  S
C669        C670   1.408       .  A
C669        C674   1.392       .  A
C669        F676   1.358       .  S
C670        C671   1.402       .  A
C671        C672   1.402       .  A
C671        F678   1.358       .  S
C672        C673   1.405       .  A
C672        F677   1.349       .  S
C673        C674   1.402       .  A
C674        F675   1.359       .  S
C679        C680   1.406       .  A
C679        C684   1.381       .  A
C679        F686   1.359       .  S
C680        C681   1.406       .  A
C681        C682   1.391       .  A
C681        F688   1.358       .  S
C682        C683   1.404       .  A
C682        F687   1.358       .  S
C683        C684   1.404       .  A
C684        F685   1.358       .  S
C689        C690   1.406       .  A
C689        C694   1.403       .  A
C689        F696   1.357       .  S
C690        C691   1.419       .  A
C691        C692   1.394       .  A
C691        F698   1.359       .  S
C692        C693   1.398       .  A
C692        F697   1.358       .  S
C693        C694   1.409       .  A
C694        F695   1.358       .  S
C699        C700   1.418       .  A
C699        C704   1.415       .  A
C699        F706   1.358       .  S
C700        C701   1.407       .  A
C701        C702   1.409       .  A
C701        F708   1.356       .  S
C702        C703   1.419       .  A
C702        F707   1.357       .  S
C703        C704   1.409       .  A
C704        F705   1.357       .  S
C709        C714   1.385   1_556  A
C709       C1538   1.404       .  A
C709        F716   1.359   1_556  S
C710        C711   1.411       .  A
C710       C1537   1.404       .  A
C711        C712   1.414       .  A
C711        F718   1.357       .  S
C712       C1541   1.409       .  A
C712        F717   1.357       .  S
C713        C714   1.405       .  A
C713       C1540   1.410   1_554  A
C714        F715   1.357       .  S
C719        C720   1.396       .  A
C719        C724   1.382       .  A
C719        F726   1.359       .  S
C720        C721   1.412       .  A
C721        C722   1.412       .  A
C721        F728   1.357       .  S
C722        C723   1.407       .  A
C722        F727   1.357       .  S
C723        C724   1.412       .  A
C724        F725   1.353       .  S
C729        C730   1.413       .  A
C729        C734   1.412       .  A
C729        F736   1.357       .  S
C730        C731   1.396       .  A
C731        C732   1.380       .  A
C731        F738   1.360       .  S
C732        C733   1.403       .  A
C732        F737   1.349       .  S
C733        C734   1.405       .  A
C734        F735   1.357       .  S
C739        C740   1.405   1_554  A
C739        C744   1.407   1_655  A
C739       F1574   1.357       .  S
C740        C883   1.449       .  S
C740        C741   1.393       .  A
C741        C742   1.377   1_656  A
C741        F748   1.359       .  S
C742        C743   1.410       .  A
C742        F747   1.359       .  S
C743        C744   1.407       .  A
C744        F745   1.357       .  S
F746       C1567   1.357       .  S
C749        C750   1.400       .  A
C749        C754   1.389       .  A
C749        F756   1.359       .  S
C750        C751   1.404       .  A
C751        C752   1.397       .  A
C751        F758   1.358       .  S
C752        C753   1.406       .  A
C752        F757   1.358       .  S
C753        C754   1.408       .  A
C754        F755   1.358       .  S
C759        C760   1.395       .  A
C759        C764   1.391       .  A
C759        F766   1.358       .  S
C760        C761   1.404       .  A
C761        C762   1.384       .  A
C761        F768   1.358       .  S
C762        C763   1.397       .  A
C762        F767   1.359       .  S
C763        C764   1.406       .  A
C764        F765   1.354       .  S
C769        C770   1.420       .  A
C769        C774   1.386       .  A
C769        F776   1.359       .  S
C770        C771   1.403       .  A
C771        C772   1.401       .  A
C771        F778   1.357       .  S
C772        C773   1.411       .  A
C772        F777   1.356       .  S
C773        C774   1.395       .  A
C774        F775   1.359       .  S
C779        C780   1.407       .  A
C779        C784   1.397       .  A
C779        F786   1.356       .  S
C780        C781   1.405       .  A
C781        C782   1.389       .  A
C781        F788   1.359       .  S
C782        C783   1.407       .  A
C782        F787   1.358       .  S
C783        C784   1.405       .  A
C784        F785   1.357       .  S
C789        C790   1.411   1_455  A
C789        C794   1.414       .  A
C789        F796   1.357       .  S
C790        C791   1.409       .  A
C791        C792   1.403   1_655  A
C791        F798   1.359       .  S
C792        C793   1.409       .  A
C792        F797   1.353       .  S
C793        C794   1.410       .  A
C794        F795   1.351       .  S
C799        C800   1.406   1_455  A
C799        C804   1.405       .  A
C799        F806   1.357       .  S
C800        C801   1.419       .  A
C801        C802   1.385   1_655  A
C801        F808   1.356       .  S
C802        C803   1.391       .  A
C802        F807   1.359       .  S
C803        C804   1.409       .  A
C804        F805   1.358       .  S
C809        C810   1.412       .  A
C809        C814   1.417       .  A
C809        F816   1.357       .  S
C810        C811   1.403       .  A
C811        C812   1.404       .  A
C811        F818   1.356       .  S
C812        C813   1.414       .  A
C812        F817   1.351       .  S
C813        C814   1.411       .  A
C814        F815   1.357       .  S
C819        C820   1.415       .  A
C819        C824   1.406       .  A
C819        F826   1.354       .  S
C820        C886   1.494       .  S
C820        C821   1.403       .  A
C821        C822   1.407       .  A
C821        F828   1.356       .  S
C822        C823   1.413       .  A
C822        F827   1.358       .  S
C823        C824   1.400       .  A
C824        F825   1.358       .  S
O829        C837   1.272       .  A
O829       Co849   2.044       .  S
O830        C838   1.251       .  A
O830       Co850   1.957       .  S
O831        C839   1.252       .  A
O831       Co851   1.959       .  S
O832        C840   1.277       .  A
O832       Co852   2.056       .  S
O833        C839   1.254       .  A
O833       Co850   1.984       .  S
O834        C840   1.249       .  A
O834       Co849   1.936       .  S
O835        C838   1.271       .  A
O835       Co852   2.021       .  S
O836        C837   1.253       .  A
O836       Co851   1.956       .  S
C837       C1651   1.486       .  S
C838       C1598   1.483       .  S
C839       C1608   1.470       .  S
C840       C1618   1.492       .  S
O841        C854   1.275       .  A
O841       Co849   1.980       .  S
O842        C855   1.269       .  A
O842       Co850   1.924       .  S
O843        C856   1.268       .  A
O843       Co851   2.001       .  S
O844        C857   1.280       .  A
O844       Co852   2.042       .  S
O845        C857   1.270       .  A
O845       Co850   1.991       .  S
O846        C856   1.252       .  A
O846       Co849   1.946       .  S
O847        C854   1.266       .  A
O847       Co852   1.992       .  S
O848        C855   1.281       .  A
O848       Co851   2.028       .  S
Co849       O853   1.992       .  S
Co850       O853   1.974       .  S
Co851       O853   2.127       .  S
Co852       O853   2.120       .  S
C854       C1628   1.485       .  S
C855       C1581   1.469       .  S
C856       C1588   1.442       .  S
C857       C1638   1.499       .  S
O858        C866   1.258       .  A
O858       Co878   1.909       .  S
O859        C867   1.243       .  A
O859       Co879   1.945       .  S
O860        C868   1.236       .  A
O860       Co880   1.951       .  S
O861        C869   1.252       .  A
O861       Co881   1.963       .  S
O862        C868   1.258       .  A
O862       Co879   2.081       .  S
O863        C869   1.256       .  A
O863       Co878   2.026       .  S
O864        C867   1.271       .  A
O864       Co881   2.046       .  S
O865        C866   1.295       .  A
O865       Co880   2.089       .  S
C866       C1548   1.467       .  S
C867       C1521   1.478       .  S
C868       C1641   1.503       .  S
C869       C1538   1.483       .  S
O870        C883   1.274       .  A
O870       Co878   1.982       .  S
O871        C884   1.246       .  A
O871       Co879   1.919       .  S
O872        C885   1.254       .  A
O872       Co880   1.979       .  S
O873        C886   1.246   1_556  A
O873       Co881   1.948       .  S
O874        C886   1.271   1_556  A
O874       Co879   2.054       .  S
O875        C885   1.267       .  A
O875       Co878   2.003       .  S
O876        C883   1.264       .  A
O876       Co881   2.023       .  S
O877        C884   1.296       .  A
O877       Co880   2.133       .  S
Co878       O882   2.015       .  S
Co879       O882   2.134       .  S
Co880       O882   2.151       .  S
Co881       O882   2.106       .  S
C884       C1528   1.500       .  S
C885       C1558   1.471   1_655  S
O887        C895   1.248       .  A
O887       Co907   1.952       .  S
O888        C896   1.285       .  A
O888       Co908   2.036       .  S
O889        C897   1.272       .  A
O889       Co909   1.929       .  S
O890        C898   1.255       .  A
O891        C897   1.283       .  A
O891       Co908   2.048       .  S
O892        C898   1.298   1_554  A
O893        C896   1.263       .  A
O893       Co910   1.954       .  S
O894        C895   1.263       .  A
O894       Co909   2.018       .  S
C895       C1571   1.467       .  S
C897       C1488   1.483   1_565  S
C898       C1498   1.472       .  S
O899        C912   1.269       .  A
O899       Co907   1.970       .  S
O900        C913   1.264       .  A
O900       Co908   1.927       .  S
O901        C914   1.292       .  A
O901       Co909   2.053       .  S
O902        C915   1.257       .  A
O902       Co910   2.008       .  S
O903        C915   1.246       .  A
O903       Co908   1.958       .  S
O904        C914   1.276       .  A
O904       Co907   2.030       .  S
O905        C912   1.275       .  A
O905       Co910   2.036       .  S
O906        C913   1.293       .  A
O906       Co909   2.041       .  S
Co907       O911   2.080       .  S
Co908       O911   2.057       .  S
Co909       O911   1.951       .  S
Co910       O911   1.912       .  S
C912       C1468   1.481       .  S
C913       C1511   1.457       .  S
C914       C1621   1.501       .  S
C915       C1458   1.473       .  S
O916        C924   1.263       .  A
O916       Co936   1.991       .  S
O917        C925   1.265       .  A
O917       Co937   1.988       .  S
O918        C926   1.271       .  A
O918       Co938   1.984       .  S
O919        C927   1.252       .  A
O919       Co939   2.057       .  S
O920        C926   1.272       .  A
O920       Co937   1.964       .  S
O921        C927   1.231       .  A
O921       Co936   1.959       .  S
O922        C925   1.259       .  A
O922       Co939   1.982       .  S
O923        C924   1.256       .  A
O923       Co938   1.978       .  S
C924       C1631   1.463       .  S
C925       C1418   1.477       .  S
C926       C1508   1.461       .  S
C927       C1431   1.470       .  S
O928        C941   1.295       .  A
O928       Co936   2.017       .  S
O929        C942   1.272       .  A
O929       Co937   2.023       .  S
O930        C943   1.273       .  A
O930       Co938   2.038       .  S
O931        C944   1.268       .  A
O931       Co939   1.969       .  S
O932        C944   1.279       .  A
O932       Co937   2.014       .  S
O933        C943   1.254       .  A
O933       Co936   1.960       .  S
O934        C941   1.289       .  A
O934       Co939   1.952       .  S
O935        C942   1.268       .  A
O935       Co938   1.986       .  S
Co936       O940   2.003       .  S
Co937       O940   2.017       .  S
Co938       O940   2.043       .  S
Co939       O940   2.048       .  S
C941       C1501   1.475       .  S
C942       C1438   1.494   1_565  S
C943       C1561   1.476       .  S
C944       C1451   1.447       .  S
O945        C953   1.292       .  A
O945       Co965   2.072       .  S
O946        C954   1.269       .  A
O946       Co966   1.984       .  S
O947        C955   1.269       .  A
O947       Co967   2.011       .  S
O948        C956   1.264   1_554  A
O949        C955   1.270       .  A
O949       Co966   1.984       .  S
O950       Co965   1.967       .  S
O951        C954   1.270       .  A
O951       Co968   2.006       .  S
O952        C953   1.263       .  A
O952       Co967   1.916       .  S
C953       C1471   1.487       .  S
C954       C1371   1.484       .  S
C955       C1348   1.496       .  S
C956       C1381   1.494       .  S
O957        C970   1.287       .  A
O957       Co965   2.051       .  S
O958        C971   1.256       .  A
O958       Co966   1.988       .  S
O959        C972   1.252       .  A
O959       Co967   1.966       .  S
O960        C973   1.282       .  A
O960       Co968   2.000       .  S
O961        C973   1.274       .  A
O961       Co966   1.991       .  S
O962        C972   1.262       .  A
O962       Co965   2.012       .  S
O963        C970   1.275       .  A
O963       Co968   1.947       .  S
O964        C971   1.252       .  A
O964       Co967   1.955       .  S
Co965       O969   2.182       .  S
Co966       O969   2.039       .  S
Co967       O969   1.940       .  S
Co968       O969   1.981       .  S
C970       C1401   1.492       .  S
C971       C1388   1.468       .  S
C972       C1408   1.481       .  S
C973       C1361   1.474       .  S
O974        C982   1.254       .  A
O974       Co994   1.973       .  S
O975        C983   1.274       .  A
O975       Co995   1.948       .  S
O976        C984   1.286       .  A
O976       Co996   2.043       .  S
O977        C985   1.298       .  A
O977       Co997   2.062       .  S
O978        C984   1.275       .  A
O978       Co995   1.957       .  S
O979        C985   1.259       .  A
O979       Co994   1.927       .  S
O980        C983   1.309       .  A
O980       Co997   2.110       .  S
O981        C982   1.265       .  A
O981       Co996   2.010       .  S
C982       C1428   1.468       .  S
C983       C1318   1.503       .  S
C984       C1298   1.492       .  S
C985       C1391   1.473       .  S
O986        C999   1.263       .  A
O986       Co994   2.001       .  S
O987       C1000   1.267       .  A
O987       Co995   2.041       .  S
O988       C1001   1.262       .  A
O988       Co996   1.947       .  S
O989       C1002   1.268       .  A
O989       Co997   1.942       .  S
O990       C1002   1.283       .  A
O990       Co995   2.076       .  S
O991       C1001   1.275       .  A
O991       Co994   2.023       .  S
O992        C999   1.256       .  A
O992       Co997   1.982       .  S
O993       C1000   1.249       .  A
O993       Co996   1.946       .  S
Co994       O998   2.034       .  S
Co995       O998   2.030       .  S
Co996       O998   2.013       .  S
Co997       O998   2.006       .  S
C999       C1331   1.479       .  S
C1000      C1378   1.467       .  S
C1001      C1341   1.478       .  S
C1002      C1311   1.485       .  S
O1003      C1011   1.260       .  A
O1003     Co1023   2.010       .  S
O1004      C1012   1.277       .  A
O1004     Co1024   2.035       .  S
O1005      C1013   1.277       .  A
O1005     Co1025   2.025       .  S
O1006      C1014   1.254       .  A
O1006     Co1026   2.063       .  S
O1007      C1013   1.269       .  A
O1007     Co1024   1.986       .  S
O1008      C1014   1.220       .  A
O1008     Co1023   1.945       .  S
O1009      C1012   1.257       .  A
O1009     Co1026   1.974       .  S
O1010      C1011   1.255       .  A
O1010     Co1025   1.959       .  S
C1011      C1578   1.456       .  S
C1012      C1491   1.494       .  S
C1013      C1271   1.492       .  S
C1014      C1288   1.474       .  S
O1015      C1028   1.289       .  A
O1015     Co1023   1.999       .  S
O1016      C1029   1.277       .  A
O1016     Co1024   2.052       .  S
O1017      C1030   1.282       .  A
O1017     Co1025   2.062       .  S
O1018      C1031   1.285       .  A
O1018     Co1026   2.031       .  S
O1019      C1031   1.271       .  A
O1019     Co1024   1.985       .  S
O1020      C1030   1.268       .  A
O1020     Co1023   1.952       .  S
O1021      C1028   1.288       .  A
O1021     Co1026   2.000       .  S
O1022      C1029   1.245       .  A
O1022     Co1025   1.890       .  S
Co1023     O1027   2.050       .  S
Co1024     O1027   2.061       .  S
Co1025     O1027   2.045       .  S
Co1026     O1027   2.075       .  S
C1028      C1358   1.488       .  S
C1029      C1281   1.491       .  S
C1030      C1321   1.501       .  S
C1031      C1441   1.489       .  S
O1032      C1040   1.300       .  A
O1032     Co1052   2.031       .  S
O1033      C1041   1.255       .  A
O1033     Co1053   2.014       .  S
O1034      C1042   1.262       .  A
O1034     Co1054   1.938       .  S
O1035      C1043   1.263       .  A
O1035     Co1055   1.971       .  S
O1036      C1042   1.283       .  A
O1036     Co1053   2.043       .  S
O1037      C1043   1.270       .  A
O1037     Co1052   2.006       .  S
O1038      C1041   1.240       .  A
O1038     Co1055   1.943       .  S
O1039      C1040   1.279       .  A
O1039     Co1054   1.936       .  S
C1040      C1518   1.493       .  S
C1041      C1448   1.455       .  S
C1042      C1258   1.479       .  S
C1043      C1278   1.465       .  S
O1044      C1057   1.277       .  A
O1044     Co1052   1.991       .  S
O1045      C1058   1.237       .  A
O1045     Co1053   1.913   1_554  S
O1046      C1059   1.240       .  A
O1046     Co1054   2.013       .  S
O1047      C1060   1.275       .  A
O1047     Co1055   2.081       .  S
O1048      C1060   1.240       .  A
O1048     Co1053   1.943       .  S
O1049      C1059   1.231       .  A
O1049     Co1052   1.977       .  S
O1050      C1057   1.279       .  A
O1050     Co1055   2.004       .  S
O1051      C1058   1.258   1_556  A
O1051     Co1054   2.024       .  S
Co1052     O1056   2.028       .  S
Co1053     O1056   2.031       .  S
Co1054     O1056   2.073       .  S
Co1055     O1056   2.062       .  S
C1057      C1308   1.482       .  S
C1059      C1368   1.468       .  S
C1060      C1481   1.497       .  S
O1061      C1069   1.259       .  A
O1061     Co1081   1.862       .  S
O1062      C1070   1.312       .  A
O1062     Co1082   2.108       .  S
O1063      C1071   1.281       .  A
O1063     Co1083   2.024       .  S
O1064      C1072   1.260       .  A
O1064     Co1084   2.064       .  S
O1065      C1071   1.276       .  A
O1065     Co1082   1.985       .  S
O1066      C1072   1.240       .  A
O1066     Co1081   1.942       .  S
O1067      C1070   1.271       .  A
O1067     Co1084   1.853       .  S
O1068      C1069   1.296       .  A
O1068     Co1083   2.095       .  S
C1069      C1611   1.467       .  S
C1070      C1461   1.469       .  S
C1071      C1248   1.500       .  S
C1072      C1351   1.492       .  S
O1073     Co1081   2.067       .  S
O1074      C1087   1.267       .  A
O1074     Co1082   2.019       .  S
O1075      C1088   1.264       .  A
O1075     Co1083   1.996       .  S
O1076      C1089   1.263       .  A
O1076     Co1084   1.966       .  S
O1077      C1089   1.263       .  A
O1077     Co1082   1.995       .  S
O1078      C1088   1.284       .  A
O1078     Co1081   2.022       .  S
O1079     Co1084   1.980       .  S
O1080      C1087   1.257       .  A
O1080     Co1083   1.984       .  S
Co1081     O1085   1.910       .  S
Co1082     O1085   2.138       .  S
Co1083     O1085   2.097       .  S
Co1084     O1085   1.913       .  S
C1086      C1241   1.473       .  S
C1087      C1218   1.481   1_565  S
C1088      C1541   1.481       .  S
C1089      C1228   1.485       .  S
O1090      C1098   1.279       .  A
O1090     Co1110   1.992       .  S
O1091      C1099   1.272       .  A
O1091     Co1111   2.021       .  S
O1092      C1100   1.286       .  A
O1092     Co1112   1.976       .  S
O1093      C1101   1.236       .  A
O1093     Co1113   1.919       .  S
O1094      C1100   1.265       .  A
O1094     Co1111   2.021       .  S
O1095      C1101   1.262       .  A
O1095     Co1110   2.066       .  S
O1096      C1099   1.255       .  A
O1096     Co1113   1.979       .  S
O1097      C1098   1.286       .  A
O1097     Co1112   1.989       .  S
C1098      C1551   1.473       .  S
C1099      C1198   1.503       .  S
C1100      C1208   1.464   1_565  S
C1101      C1238   1.480       .  S
O1102      C1115   1.269       .  A
O1102     Co1110   1.935       .  S
O1103      C1116   1.240       .  A
O1103     Co1111   1.965       .  S
O1104      C1117   1.262       .  A
O1104     Co1112   1.967       .  S
O1105      C1118   1.267       .  A
O1105     Co1113   2.023       .  S
O1106      C1118   1.250       .  A
O1106     Co1111   1.942       .  S
O1107      C1117   1.277       .  A
O1107     Co1110   2.000       .  S
O1108      C1115   1.295       .  A
O1108     Co1113   2.078       .  S
O1109      C1116   1.252       .  A
O1109     Co1112   2.044       .  S
Co1110     O1114   2.064       .  S
Co1111     O1114   2.083       .  S
Co1112     O1114   2.050       .  S
Co1113     O1114   2.047       .  S
C1115      C1301   1.493       .  S
C1116      C1251   1.494       .  S
C1117      C1601   1.466       .  S
C1118      C1421   1.480       .  S
O1119      C1127   1.237       .  A
O1119     Co1139   1.947       .  S
O1120      C1128   1.275       .  A
O1120     Co1140   2.012       .  S
O1121      C1129   1.301       .  A
O1121     Co1141   2.097       .  S
O1122      C1130   1.269       .  A
O1122     Co1142   2.113       .  S
O1123      C1129   1.280       .  A
O1123     Co1140   1.958       .  S
O1124      C1130   1.233       .  A
O1124     Co1139   1.933       .  S
O1125      C1128   1.253       .  A
O1125     Co1142   1.953       .  S
O1126      C1127   1.250       .  A
O1126     Co1141   1.993       .  S
C1127      C1591   1.449       .  S
C1128      C1211   1.467       .  S
C1129      C1268   1.505       .  S
C1130      C1178   1.478       .  S
O1131      C1144   1.305       .  A
O1131     Co1139   2.125       .  S
O1132      C1145   1.256       .  A
O1132     Co1140   2.045       .  S
O1133      C1146   1.263       .  A
O1133     Co1141   1.954       .  S
O1134      C1147   1.290       .  A
O1134     Co1142   2.002       .  S
O1135      C1147   1.288       .  A
O1135     Co1140   2.022       .  S
O1136      C1146   1.280       .  A
O1136     Co1139   2.048       .  S
O1137      C1144   1.274       .  A
O1137     Co1142   1.901       .  S
O1138      C1145   1.236       .  A
O1138     Co1141   1.930       .  S
Co1139     O1143   2.081       .  S
Co1140     O1143   2.072       .  S
Co1141     O1143   2.040       .  S
Co1142     O1143   1.956       .  S
C1144      C1328   1.478       .  S
C1145      C1191   1.468       .  S
C1146      C1411   1.495       .  S
C1147      C1221   1.476       .  S
O1148      C1156   1.274       .  A
O1148     Co1168   1.964       .  S
O1149      C1157   1.270       .  A
O1149     Co1169   1.906       .  S
O1150      C1158   1.267       .  A
O1150     Co1170   2.018       .  S
O1151      C1159   1.290       .  A
O1152      C1158   1.247       .  A
O1152     Co1169   1.947       .  S
O1153     Co1168   1.990       .  S
O1154      C1157   1.292       .  A
O1154     Co1171   2.073       .  S
O1155      C1156   1.282       .  A
O1155     Co1170   2.035       .  S
C1156      C1531   1.510       .  S
C1157      C1231   1.468       .  S
C1158      C1261   1.483       .  S
C1159      C1188   1.490       .  S
O1160      C1173   1.266       .  A
O1160     Co1168   1.989       .  S
O1161      C1174   1.280       .  A
O1161     Co1169   2.049       .  S
O1162      C1175   1.253       .  A
O1162     Co1170   1.983       .  S
O1163      C1176   1.266       .  A
O1163     Co1171   2.013       .  S
O1164      C1176   1.250       .  A
O1164     Co1169   1.962       .  S
O1165      C1175   1.251       .  A
O1165     Co1168   1.968       .  S
O1166      C1173   1.267       .  A
O1166     Co1171   2.004       .  S
O1167      C1174   1.245       .  A
O1167     Co1170   1.896       .  S
Co1168     O1172   1.997       .  S
Co1169     O1172   1.967       .  S
Co1170     O1172   2.178       .  S
Co1171     O1172   2.141       .  S
C1173      C1398   1.494       .  S
C1174      C1181   1.485       .  S
C1175      C1338   1.476       .  S
C1176      C1201   1.497       .  S
C1177      C1178   1.393       .  A
C1177      C1182   1.386       .  A
C1177      F1184   1.352       .  S
C1178      C1179   1.416       .  A
C1179      C1180   1.415       .  A
C1179      F1186   1.357       .  S
C1180      C1181   1.405       .  A
C1180      F1185   1.356       .  S
C1181      C1182   1.416       .  A
C1182      F1183   1.361       .  S
C1187      C1188   1.414       .  A
C1187      C1192   1.399       .  A
C1187      F1194   1.356       .  S
C1188      C1189   1.408       .  A
C1189      C1190   1.403       .  A
C1189      F1196   1.357       .  S
C1190      C1191   1.407       .  A
C1190      F1195   1.357       .  S
C1191      C1192   1.395       .  A
C1192      F1193   1.355       .  S
C1197      C1198   1.418   1_545  A
C1197      C1202   1.415       .  A
C1197      F1204   1.357   1_545  S
C1198      C1199   1.405   1_565  A
C1199      C1200   1.396       .  A
C1199      F1206   1.357       .  S
C1200      C1201   1.410       .  A
C1200      F1205   1.348       .  S
C1201      C1202   1.410       .  A
C1202      F1203   1.357       .  S
C1207      C1208   1.416       .  A
C1207      C1212   1.392       .  A
C1207      F1214   1.358   1_545  S
C1208      C1209   1.394       .  A
C1209      C1210   1.390       .  A
C1209      F1216   1.358       .  S
C1210      C1211   1.417       .  A
C1210      F1215   1.358       .  S
C1211      C1212   1.395       .  A
C1212      F1213   1.358       .  S
C1217      C1218   1.407       .  A
C1217      C1222   1.412       .  A
C1217      F1224   1.357       .  S
C1218      C1219   1.402       .  A
C1219      C1220   1.395       .  A
C1219      F1226   1.356   1_545  S
C1220      C1221   1.406       .  A
C1220      F1225   1.358       .  S
C1221      C1222   1.406       .  A
C1222      F1223   1.356       .  S
C1227      C1228   1.403       .  A
C1228      C1229   1.418   1_565  A
C1229      C1230   1.405       .  A
C1229      F1236   1.358       .  S
C1230      F1235   1.357       .  S
C1231      C1232   1.398       .  A
C1232      F1233   1.352       .  S
C1237      C1238   1.410       .  A
C1237      C1242   1.387       .  A
C1237      F1244   1.359       .  S
C1238      C1239   1.408       .  A
C1239      C1240   1.411       .  A
C1239      F1246   1.357       .  S
C1240      C1241   1.409       .  A
C1240      F1245   1.357       .  S
C1241      C1242   1.395       .  A
C1242      F1243   1.353       .  S
C1247      C1248   1.414       .  A
C1247      C1252   1.395       .  A
C1247      F1254   1.357       .  S
C1248      C1249   1.412       .  A
C1249      C1250   1.408       .  A
C1249      F1256   1.357       .  S
C1250      C1251   1.412       .  A
C1250      F1255   1.358       .  S
C1251      C1252   1.407       .  A
C1252      F1253   1.356       .  S
C1257      C1258   1.404       .  A
C1257      C1262   1.403       .  A
C1257      F1264   1.358       .  S
C1258      C1259   1.410       .  A
C1259      C1260   1.391       .  A
C1259      F1266   1.357       .  S
C1260      C1261   1.404       .  A
C1260      F1265   1.358       .  S
C1261      C1262   1.415       .  A
C1262      F1263   1.358       .  S
C1267      C1268   1.414       .  A
C1267      C1272   1.415       .  A
C1267      F1274   1.357       .  S
C1268      C1269   1.413       .  A
C1269      C1270   1.403       .  A
C1269      F1276   1.358       .  S
C1270      C1271   1.404       .  A
C1270      F1275   1.358       .  S
C1271      C1272   1.408       .  A
C1272      F1273   1.357       .  S
C1277      C1278   1.393       .  A
C1277      C1282   1.383       .  A
C1277      F1284   1.360       .  S
C1278      C1279   1.415       .  A
C1279      C1280   1.414       .  A
C1279      F1286   1.357       .  S
C1280      C1281   1.406       .  A
C1280      F1285   1.357       .  S
C1281      C1282   1.417       .  A
C1282      F1283   1.356       .  S
C1287      C1288   1.394       .  A
C1287      C1292   1.391       .  A
C1287      F1294   1.358       .  S
C1288      C1289   1.416       .  A
C1289      C1290   1.403       .  A
C1289      F1296   1.358       .  S
C1290      C1291   1.399       .  A
C1290      F1295   1.357       .  S
C1291      C1292   1.421       .  A
C1292      F1293   1.359       .  S
C1297      C1298   1.414       .  A
C1297      C1302   1.407       .  A
C1297      F1304   1.358       .  S
C1298      C1299   1.407       .  A
C1299      C1300   1.394       .  A
C1299      F1306   1.359       .  S
C1300      C1301   1.414       .  A
C1300      F1305   1.358       .  S
C1301      C1302   1.408       .  A
C1302      F1303   1.357       .  S
C1307      C1308   1.411       .  A
C1307      C1312   1.412       .  A
C1307      F1314   1.357       .  S
C1308      C1309   1.404       .  A
C1309      C1310   1.383       .  A
C1309      F1316   1.359       .  S
C1310      C1311   1.409       .  A
C1310      F1315   1.358       .  S
C1311      C1312   1.409       .  A
C1312      F1313   1.357       .  S
C1317      C1318   1.413       .  A
C1317      C1322   1.389       .  A
C1317      F1324   1.357       .  S
C1318      C1319   1.413       .  A
C1319      C1320   1.417       .  A
C1319      F1326   1.357       .  S
C1320      C1321   1.415       .  A
C1320      F1325   1.356       .  S
C1321      C1322   1.403       .  A
C1322      F1323   1.351       .  S
C1327      C1328   1.403       .  A
C1327      C1332   1.402   1_655  A
C1327      F1334   1.353       .  S
C1328      C1329   1.403   1_655  A
C1329      C1330   1.405       .  A
C1329      F1336   1.358       .  S
C1330      C1331   1.408       .  A
C1330      F1335   1.354       .  S
C1331      C1332   1.402       .  A
C1332      F1333   1.358       .  S
C1337      C1338   1.405   1_455  A
C1337      C1342   1.391       .  A
C1337      F1344   1.357   1_455  S
C1338      C1339   1.408       .  A
C1339      C1340   1.401   1_655  A
C1339      F1346   1.358       .  S
C1340      C1341   1.408       .  A
C1340      F1345   1.358       .  S
C1341      C1342   1.408       .  A
C1342      F1343   1.359       .  S
C1347      C1348   1.415       .  A
C1347      C1352   1.409       .  A
C1347      F1354   1.357       .  S
C1348      C1349   1.409       .  A
C1349      C1350   1.391       .  A
C1349      F1356   1.359       .  S
C1350      C1351   1.412       .  A
C1350      F1355   1.359       .  S
C1351      C1352   1.408       .  A
C1352      F1353   1.357       .  S
C1357      C1358   1.404       .  A
C1357      C1362   1.404       .  A
C1357      F1364   1.358       .  S
C1358      C1359   1.409       .  A
C1359      C1360   1.406       .  A
C1359      F1366   1.352       .  S
C1360      C1361   1.405       .  A
C1360      F1365   1.358       .  S
C1361      C1362   1.410       .  A
C1362      F1363   1.358       .  S
C1367      C1368   1.402       .  A
C1367      C1372   1.397   1_556  A
C1367      F1374   1.358       .  S
C1368      C1369   1.403   1_556  A
C1369      F1376   1.358       .  S
C1370      C1371   1.410       .  A
C1370      F1375   1.358       .  S
C1372      F1373   1.358   1_554  S
C1377      C1378   1.399       .  A
C1377      C1382   1.395       .  A
C1377      F1384   1.356       .  S
C1378      C1379   1.407       .  A
C1379      C1380   1.405       .  A
C1379      F1386   1.358       .  S
C1380      C1381   1.410       .  A
C1380      F1385   1.357       .  S
C1381      C1382   1.413       .  A
C1382      F1383   1.355       .  S
C1387      C1388   1.398       .  A
C1387      C1392   1.374       .  A
C1387      F1394   1.350       .  S
C1388      C1389   1.407       .  A
C1389      C1390   1.410       .  A
C1389      F1396   1.357       .  S
C1390      C1391   1.409       .  A
C1390      F1395   1.354       .  S
C1391      C1392   1.405       .  A
C1392      F1393   1.360       .  S
C1397      C1402   1.385   1_655  A
C1397      F1404   1.359       .  S
C1398      C1399   1.416   1_655  A
C1399      C1400   1.414       .  A
C1399      F1406   1.357   1_455  S
C1400      F1405   1.357       .  S
C1401      C1402   1.405       .  A
C1402      F1403   1.357       .  S
C1407      C1408   1.407       .  A
C1407      C1412   1.407       .  A
C1407      F1414   1.357       .  S
C1408      C1409   1.402       .  A
C1409      C1410   1.401   1_455  A
C1409      F1416   1.357       .  S
C1410      C1411   1.414       .  A
C1410      F1415   1.358       .  S
C1411      C1412   1.411   1_655  A
C1412      F1413   1.357       .  S
C1417      C1418   1.405       .  A
C1417      C1422   1.393       .  A
C1417      F1424   1.358       .  S
C1418      C1419   1.410       .  A
C1419      C1420   1.397       .  A
C1419      F1426   1.358       .  S
C1420      C1421   1.406       .  A
C1420      F1425   1.358       .  S
C1421      C1422   1.412       .  A
C1422      F1423   1.358       .  S
C1427      C1428   1.406       .  A
C1427      C1432   1.403       .  A
C1427      F1434   1.355       .  S
C1428      C1429   1.400       .  A
C1429      C1430   1.394       .  A
C1429      F1436   1.358       .  S
C1430      C1431   1.408       .  A
C1430      F1435   1.359       .  S
C1431      C1432   1.404       .  A
C1432      F1433   1.356       .  S
C1437      C1438   1.404       .  A
C1437      C1442   1.405       .  A
C1437      F1444   1.357       .  S
C1438      C1439   1.411       .  A
C1439      C1440   1.413       .  A
C1439      F1446   1.358       .  S
C1440      C1441   1.409       .  A
C1440      F1445   1.358       .  S
C1441      C1442   1.411       .  A
C1442      F1443   1.354       .  S
C1447      C1448   1.407       .  A
C1447      C1452   1.381       .  A
C1447      F1454   1.357       .  S
C1448      C1449   1.401       .  A
C1449      C1450   1.399   1_545  A
C1449      F1456   1.357       .  S
C1450      C1451   1.405       .  A
C1450      F1455   1.357       .  S
C1451      C1452   1.392   1_565  A
C1452      F1453   1.355       .  S
C1457      C1458   1.412       .  A
C1457      C1462   1.396       .  A
C1457      F1464   1.358       .  S
C1458      C1459   1.403       .  A
C1459      C1460   1.393       .  A
C1459      F1466   1.358       .  S
C1460      C1461   1.409       .  A
C1460      F1465   1.359       .  S
C1461      C1462   1.401       .  A
C1462      F1463   1.358       .  S
C1467      C1468   1.407       .  A
C1467      C1472   1.393       .  A
C1468      C1469   1.405       .  A
C1469      C1470   1.407       .  A
C1469      F1476   1.357       .  S
C1470      C1471   1.413       .  A
C1470      F1475   1.357       .  S
C1471      C1472   1.407       .  A
C1472      F1473   1.358       .  S
C1477      C1478   1.419       .  A
C1477      C1482   1.413   1_565  A
C1477      F1484   1.357       .  S
C1478      C1479   1.397   1_566  A
C1479      C1480   1.385   1_554  A
C1480      C1481   1.419       .  A
C1480      F1485   1.358   1_556  S
C1481      C1482   1.407       .  A
C1482      F1483   1.357       .  S
C1487      C1488   1.401       .  A
C1487      C1492   1.402       .  A
C1487      F1494   1.357       .  S
C1488      C1489   1.412       .  A
C1489      C1490   1.403       .  A
C1489      F1496   1.358       .  S
C1490      C1491   1.406       .  A
C1490      F1495   1.357       .  S
C1491      C1492   1.418       .  A
C1492      F1493   1.358       .  S
C1497      C1498   1.409       .  A
C1497      C1502   1.392       .  A
C1497      F1504   1.358       .  S
C1498      C1499   1.402       .  A
C1499      C1500   1.403       .  A
C1499      F1506   1.358       .  S
C1500      C1501   1.405       .  A
C1500      F1505   1.349       .  S
C1501      C1502   1.402       .  A
C1502      F1503   1.359       .  S
C1507      C1508   1.407       .  A
C1507      C1512   1.382       .  A
C1507      F1514   1.359       .  S
C1508      C1509   1.405       .  A
C1509      C1510   1.392       .  A
C1509      F1516   1.358       .  S
C1510      C1511   1.406       .  A
C1510      F1515   1.358       .  S
C1511      C1512   1.403       .  A
C1512      F1513   1.358       .  S
C1517      C1518   1.405       .  A
C1517      C1522   1.408       .  A
C1517      F1524   1.357       .  S
C1518      C1519   1.418       .  A
C1519      C1520   1.397       .  A
C1519      F1526   1.359       .  S
C1520      C1521   1.398       .  A
C1520      F1525   1.357   1_556  S
C1521      C1522   1.412       .  A
C1522      F1523   1.358       .  S
C1527      C1528   1.417       .  A
C1527      C1532   1.414       .  A
C1527      F1534   1.358       .  S
C1528      C1529   1.407       .  A
C1529      C1530   1.409       .  A
C1529      F1536   1.356       .  S
C1530      C1531   1.416       .  A
C1530      F1535   1.358       .  S
C1531      C1532   1.409       .  A
C1532      F1533   1.357       .  S
C1537      C1542   1.383       .  A
C1537      F1544   1.359       .  S
C1538      C1539   1.412       .  A
C1539      C1540   1.415       .  A
C1539      F1546   1.357       .  S
C1540      F1545   1.357       .  S
C1541      C1542   1.403       .  A
C1542      F1543   1.357       .  S
C1547      C1548   1.398       .  A
C1547      C1552   1.381       .  A
C1547      F1554   1.359       .  S
C1548      C1549   1.410       .  A
C1549      C1550   1.408       .  A
C1549      F1556   1.357       .  S
C1550      C1551   1.406       .  A
C1550      F1555   1.357       .  S
C1551      C1552   1.410       .  A
C1552      F1553   1.356       .  S
C1557      C1558   1.413       .  A
C1557      C1562   1.413       .  A
C1557      F1564   1.357       .  S
C1558      C1559   1.397       .  A
C1559      C1560   1.381       .  A
C1559      F1566   1.360       .  S
C1560      C1561   1.403       .  A
C1560      F1565   1.350       .  S
C1561      C1562   1.406       .  A
C1562      F1563   1.357       .  S
C1567      C1568   1.404       .  A
C1567      C1572   1.406   1_655  A
C1568      C1569   1.393       .  A
C1569      C1570   1.376   1_655  A
C1569      F1576   1.360       .  S
C1570      C1571   1.410       .  A
C1570      F1575   1.359       .  S
C1571      C1572   1.407       .  A
C1572      F1573   1.357       .  S
C1577      C1578   1.400       .  A
C1577      C1582   1.389       .  A
C1577      F1584   1.358       .  S
C1578      C1579   1.404       .  A
C1579      C1580   1.397       .  A
C1579      F1586   1.358       .  S
C1580      C1581   1.406       .  A
C1580      F1585   1.358       .  S
C1581      C1582   1.408       .  A
C1582      F1583   1.358       .  S
C1587      C1588   1.396       .  A
C1587      C1592   1.390       .  A
C1587      F1594   1.358       .  S
C1588      C1589   1.404       .  A
C1589      C1590   1.386       .  A
C1589      F1596   1.358       .  S
C1590      C1591   1.398       .  A
C1590      F1595   1.359       .  S
C1591      C1592   1.405       .  A
C1592      F1593   1.354       .  S
C1597      C1598   1.420       .  A
C1597      C1602   1.389       .  A
C1597      F1604   1.359       .  S
C1598      C1599   1.403       .  A
C1599      C1600   1.400       .  A
C1599      F1606   1.357       .  S
C1600      C1601   1.411       .  A
C1600      F1605   1.357       .  S
C1601      C1602   1.395       .  A
C1602      F1603   1.359       .  S
C1607      C1608   1.406       .  A
C1607      C1612   1.395       .  A
C1607      F1614   1.356       .  S
C1608      C1609   1.407       .  A
C1609      C1610   1.390       .  A
C1609      F1616   1.359       .  S
C1610      C1611   1.405       .  A
C1610      F1615   1.358       .  S
C1611      C1612   1.404       .  A
C1612      F1613   1.357       .  S
C1617      C1618   1.410   1_455  A
C1617      C1622   1.412       .  A
C1617      F1624   1.357       .  S
C1618      C1619   1.409       .  A
C1619      C1620   1.403   1_655  A
C1619      F1626   1.358       .  S
C1620      C1621   1.408       .  A
C1620      F1625   1.354       .  S
C1621      C1622   1.409       .  A
C1622      F1623   1.351       .  S
C1627      C1628   1.407   1_455  A
C1627      C1632   1.406       .  A
C1627      F1634   1.357       .  S
C1628      C1629   1.419       .  A
C1629      C1630   1.387   1_655  A
C1629      F1636   1.357       .  S
C1630      C1631   1.391       .  A
C1630      F1635   1.359       .  S
C1631      C1632   1.409       .  A
C1632      F1633   1.358       .  S
C1637      C1638   1.412       .  A
C1637      C1642   1.415       .  A
C1637      F1644   1.357       .  S
C1638      C1639   1.404       .  A
C1639      C1640   1.404       .  A
C1639      F1646   1.357       .  S
C1640      C1641   1.413       .  A
C1640      F1645   1.352       .  S
C1641      C1642   1.410       .  A
C1642      F1643   1.357       .  S
C1647      C1648   1.416       .  A
C1647      C1652   1.406       .  A
C1647      F1654   1.354       .  S
C1648      C1649   1.404       .  A
C1649      C1650   1.408       .  A
C1649      F1656   1.357       .  S
C1650      C1651   1.414       .  A
C1650      F1655   1.358       .  S
C1651      C1652   1.400       .  A
C1652      F1653   1.358       .  S
