geometry optimzed in LAMMPS
_audit_creation_date              2020-11-30 
_audit_creation_method            'lammps2cif' 
_symmetry_space_group_name_H-M    'P1' 
_symmetry_Int_Tables_number       1 
_symmetry_cell_setting            triclinic 
loop_ 
_symmetry_equiv_pos_as_xyz 
  x,y,z 
_cell_length_a                    25.9750638 
_cell_length_b                    26.138177064331817 
_cell_length_c                    31.815348435539903 
_cell_angle_alpha                 89.7418698305135 
_cell_angle_beta                  89.9071506757883 
_cell_angle_gamma                 90.10871759909833 
loop_ 
_atom_site_label 
_atom_site_type_symbol 
_atom_site_fract_x 
_atom_site_fract_y 
_atom_site_fract_z 
_atom_site_charge 
N1          N  0.68600592  0.79439805  0.38054033    -0.37000
N2          N  0.69543383  0.68942540  0.34600848    -0.57600
N3          N  0.80590555  0.69753165  0.36716046    -0.37000
N4          N  0.79497369  0.80009078  0.40300661    -0.57600
C5          C  0.63824146  0.78715403  0.36453075     0.26600
C6          C  0.68829380  0.84323249  0.39484612     0.26600
C7          C  0.80234904  0.64866770  0.35319074     0.26600
C8          C  0.85307540  0.70283941  0.38502912     0.26600
C9          C  0.64946063  0.70195385  0.32900918     0.35200
C10         C  0.71277686  0.64839555  0.32441873     0.35200
C11         C  0.78130468  0.84709228  0.41703073     0.35200
C12         C  0.84476471  0.79207940  0.41395277     0.35200
C13         C  0.60899577  0.83041678  0.37151202    -0.22300
C14         C  0.64089678  0.86649065  0.38784014    -0.22300
C15         C  0.84794001  0.62335391  0.36130298    -0.22300
C16         C  0.88063815  0.65790720  0.37859802    -0.22300
C17         C  0.63650696  0.66713688  0.29794481    -0.23300
C18         C  0.67652673  0.63327653  0.29506294    -0.23300
C19         C  0.82396897  0.87022315  0.43498553    -0.23300
C20         C  0.86367719  0.83559922  0.43325737    -0.23300
C21         C  0.62199247  0.74754223  0.33710990    -0.18700
C22         C  0.73020822  0.86739156  0.41625972    -0.18700
C23         C  0.87132695  0.74454269  0.41019447    -0.18700
C24         C  0.76253124  0.62711881  0.32840605    -0.18700
H25         H  0.56884336  0.83574506  0.36421430     0.14200
H26         H  0.62989225  0.90575817  0.39341381     0.14200
H27         H  0.85712786  0.58396155  0.35462633     0.14200
H28         H  0.92050086  0.64996841  0.38582892     0.14200
H29         H  0.60297985  0.66736409  0.27784568     0.12500
H30         H  0.67942714  0.60278318  0.27234657     0.12500
H31         H  0.82741708  0.90816969  0.44779027     0.12500
H32         H  0.90212897  0.84280631  0.44458405     0.12500
H33         H  0.71439656  0.76707989  0.38262760     0.25800
H34         H  0.77952177  0.72622444  0.36156590     0.25800
N35         N  0.79251405  0.19898485  0.40439912    -0.37000
N36         N  0.68826723  0.20401418  0.37527821    -0.57600
N37         N  0.69962964  0.31022056  0.34208240    -0.37000
N38         N  0.80695620  0.29949098  0.36670670    -0.57600
C39         C  0.77828705  0.15013021  0.41303961     0.26600
C40         C  0.84393904  0.20328573  0.41021568     0.26600
C41         C  0.65954760  0.29174074  0.31984754     0.26600
C42         C  0.72274188  0.34594206  0.31770646     0.26600
C43         C  0.68392033  0.16302060  0.40124891     0.35200
C44         C  0.63973321  0.21990866  0.36690827     0.35200
C45         C  0.85355256  0.29337470  0.38532587     0.35200
C46         C  0.80350841  0.35019966  0.35703816     0.35200
C47         C  0.82209231  0.12260653  0.42394530    -0.22300
C48         C  0.86332677  0.15634519  0.42263240    -0.22300
C49         C  0.65659913  0.31655993  0.28142421    -0.22300
C50         C  0.69646114  0.35079165  0.28010363    -0.22300
C51         C  0.63173433  0.15339691  0.40822378    -0.23300
C52         C  0.60426497  0.18940741  0.38708385    -0.23300
C53         C  0.87999376  0.33892744  0.38378630    -0.23300
C54         C  0.84662422  0.37550026  0.37063206    -0.23300
C55         C  0.72618784  0.13317497  0.41700330    -0.18700
C56         C  0.87162866  0.25007678  0.40848912    -0.18700
C57         C  0.76830495  0.37201883  0.32818753    -0.18700
C58         C  0.62675977  0.25219538  0.33334287    -0.18700
H59         H  0.82433773  0.08301476  0.43365702     0.14200
H60         H  0.90276724  0.14753800  0.43075193     0.14200
H61         H  0.63002946  0.30956747  0.25613428     0.14200
H62         H  0.70641501  0.37403309  0.25332125     0.14200
H63         H  0.61330749  0.12310283  0.42513050     0.12500
H64         H  0.56271882  0.19091623  0.38441569     0.12500
H65         H  0.91985407  0.34421364  0.39102584     0.12500
H66         H  0.85366657  0.41615163  0.36905527     0.12500
H67         H  0.76767493  0.22983524  0.40186770     0.25800
H68         H  0.70969866  0.30012101  0.37275267     0.25800
N69         N  0.19056730  0.29736792  0.37323071    -0.37000
N70         N  0.29589312  0.30373232  0.34497311    -0.57600
N71         N  0.30647338  0.19968429  0.37717795    -0.37000
N72         N  0.19950232  0.19009714  0.40323317    -0.57600
C73         C  0.18695661  0.33680754  0.34555150     0.26600
C74         C  0.14192161  0.28098899  0.38112190     0.26600
C75         C  0.35355429  0.20673852  0.35947834     0.26600
C76         C  0.30359321  0.14960232  0.38887683     0.26600
C77         C  0.28114939  0.35073317  0.33175073     0.35200
C78         C  0.34569438  0.29718592  0.33365754     0.35200
C79         C  0.15636363  0.20428646  0.42385200     0.35200
C80         C  0.21837645  0.14921679  0.42422684     0.35200
C81         C  0.13475474  0.34482930  0.33718511    -0.22300
C82         C  0.10696308  0.30969272  0.35908373    -0.22300
C83         C  0.38086257  0.16170753  0.36292846    -0.22300
C84         C  0.34803966  0.12502521  0.37703595    -0.22300
C85         C  0.32309815  0.37526812  0.31341403    -0.23300
C86         C  0.36363330  0.34118670  0.31420193    -0.23300
C87         C  0.14638944  0.17094382  0.45662381    -0.23300
C88         C  0.18528910  0.13597836  0.45670978    -0.23300
C89         C  0.22882706  0.36688465  0.32909164    -0.18700
C90         C  0.12718513  0.24776794  0.41358903    -0.18700
C91         C  0.26694082  0.12681362  0.41634378    -0.18700
C92         C  0.37240437  0.24995320  0.33636841    -0.18700
H93         H  0.11609782  0.37357744  0.31890568     0.14200
H94         H  0.06535664  0.30725268  0.36049397     0.14200
H95         H  0.42100879  0.15651027  0.35629326     0.14200
H96         H  0.35642176  0.08478924  0.38034382     0.14200
H97         H  0.32420687  0.41263568  0.29881100     0.12500
H98         H  0.40140712  0.34774637  0.30087529     0.12500
H99         H  0.11518270  0.17146015  0.47885888     0.12500
H100        H  0.18883954  0.10590833  0.47959619     0.12500
H101        H  0.22274428  0.28731189  0.39074094     0.25800
H102        H  0.27956719  0.22765263  0.38332349     0.25800
N103        N  0.30966315  0.79951236  0.37266670    -0.37000
N104        N  0.29741251  0.69398754  0.34216619    -0.57600
N105        N  0.19227037  0.70101949  0.37126861    -0.37000
N106        N  0.20389479  0.80782132  0.40065623    -0.57600
C107        C  0.35839307  0.78589646  0.36229804     0.26600
C108        C  0.31314354  0.84344132  0.39514650     0.26600
C109        C  0.19047919  0.65383950  0.35350667     0.26600
C110        C  0.14356555  0.71283321  0.38306900     0.26600
C111        C  0.34486488  0.70311989  0.32627938     0.35200
C112        C  0.28210126  0.64785661  0.32772803     0.35200
C113        C  0.22107675  0.85135113  0.41875056     0.35200
C114        C  0.15697243  0.79778347  0.41726937     0.35200
C115        C  0.39290025  0.82101935  0.37833807    -0.22300
C116        C  0.36450655  0.85828474  0.39661356    -0.22300
C117        C  0.14041036  0.63507370  0.35728098    -0.22300
C118        C  0.11078177  0.67317274  0.37280472    -0.22300
C119        C  0.36122175  0.66152809  0.30331138    -0.23300
C120        C  0.32210218  0.62646152  0.30458418    -0.23300
C121        C  0.18343576  0.87011068  0.44566933    -0.23300
C122        C  0.14318683  0.83602771  0.44493311    -0.23300
C123        C  0.37287284  0.74876039  0.33237875    -0.18700
C124        C  0.27251129  0.86991601  0.41621903    -0.18700
C125        C  0.12817837  0.75279279  0.41009876    -0.18700
C126        C  0.23096867  0.62816570  0.33128613    -0.18700
H127        H  0.43433798  0.82176743  0.37438915     0.14200
H128        H  0.38068389  0.89332581  0.40799957     0.14200
H129        H  0.12572288  0.59724366  0.35078720     0.14200
H130        H  0.06985141  0.67063341  0.37878127     0.14200
H131        H  0.39786379  0.65539187  0.28819471     0.12500
H132        H  0.32460181  0.58968852  0.28968951     0.12500
H133        H  0.18531091  0.90313806  0.46584055     0.12500
H134        H  0.10849630  0.83849310  0.46364792     0.12500
H135        H  0.27648898  0.78351911  0.36031042     0.25800
H136        H  0.22483826  0.72170468  0.37887266     0.25800
N137        N  0.20192608  0.68876589  0.12061775    -0.37000
N138        N  0.20695479  0.79363189  0.08984198    -0.57600
N139        N  0.31441184  0.79123068  0.11636115    -0.37000
N140        N  0.31115189  0.68604194  0.14714592    -0.57600
C141        C  0.15496754  0.69215847  0.10184017     0.26600
C142        C  0.20792708  0.63950249  0.13354978     0.26600
C143        C  0.30654470  0.84174131  0.10796572     0.26600
C144        C  0.36087842  0.78809273  0.13582560     0.26600
C145        C  0.15815417  0.78427277  0.07736056     0.35200
C146        C  0.21941340  0.84136551  0.07663882     0.35200
C147        C  0.29522992  0.64254902  0.16642896     0.35200
C148        C  0.35720933  0.69847298  0.16413717     0.35200
C149        C  0.13060514  0.64472793  0.10603084    -0.22300
C150        C  0.16478515  0.61145420  0.12306562    -0.22300
C151        C  0.34688310  0.86984540  0.12332705    -0.22300
C152        C  0.38310939  0.83595164  0.13596721    -0.22300
C153        C  0.13870188  0.82803693  0.05809682    -0.23300
C154        C  0.17733488  0.86373102  0.05746733    -0.23300
C155        C  0.33263586  0.62578780  0.19422004    -0.23300
C156        C  0.37193892  0.66103453  0.19262318    -0.23300
C157        C  0.13359521  0.73545938  0.07956353    -0.18700
C158        C  0.24592169  0.62022370  0.16135377    -0.18700
C159        C  0.38181097  0.74658375  0.15952657    -0.18700
C160        C  0.26848070  0.86404334  0.08182075    -0.18700
H161        H  0.09112955  0.63433752  0.09969611     0.14200
H162        H  0.15707310  0.57159893  0.13007573     0.14200
H163        H  0.34964188  0.91102173  0.12356810     0.14200
H164        H  0.42190346  0.84484877  0.14448211     0.14200
H165        H  0.10068239  0.83545666  0.04609856     0.12500
H166        H  0.17315524  0.90208139  0.04532308     0.12500
H167        H  0.33150690  0.59251441  0.21442444     0.12500
H168        H  0.40620673  0.66038192  0.21185208     0.12500
H169        H  0.22592688  0.71882021  0.12847510     0.25800
H170        H  0.29233047  0.76087076  0.10584715     0.25800
N171        N  0.81961607  0.71118650  0.12777485    -0.37000
N172        N  0.81483098  0.81803673  0.09832603    -0.57600
N173        N  0.70546680  0.81336459  0.12608672    -0.37000
N174        N  0.71549790  0.71017908  0.16005729    -0.57600
C175        C  0.86831702  0.71957001  0.11373422     0.26600
C176        C  0.81786816  0.66238742  0.14276316     0.26600
C177        C  0.71771786  0.86311634  0.11870671     0.26600
C178        C  0.67241016  0.81267065  0.15917759     0.26600
C179        C  0.85774600  0.80378511  0.07769318     0.35200
C180        C  0.79602824  0.85849425  0.07687181     0.35200
C181        C  0.72510634  0.65973036  0.16565536     0.38800
C182        C  0.66552315  0.71873971  0.16987712     0.35200
C183        C  0.89814059  0.67698557  0.12137849    -0.22300
C184        C  0.86601023  0.64016375  0.13597313    -0.22300
C185        C  0.69365473  0.89450487  0.14692472    -0.22300
C186        C  0.66720890  0.86287884  0.17367846    -0.22300
C187        C  0.86796600  0.83730402  0.04483450    -0.23300
C188        C  0.82857941  0.87197932  0.04424403    -0.23300
C189        C  0.67998682  0.63550157  0.17816968    -0.23300
C190        C  0.64242940  0.67258384  0.18070317    -0.23300
C191        C  0.88423183  0.75783026  0.08496658    -0.18700
C192        C  0.77501411  0.63708710  0.16289058    -0.18700
C193        C  0.64402120  0.76865019  0.17373315    -0.18700
C194        C  0.74877300  0.88152716  0.08598395    -0.18700
H195        H  0.93802512  0.67130804  0.11282684     0.14200
H196        H  0.87756470  0.60057371  0.13821175     0.14200
H197        H  0.69692613  0.93571063  0.14910170     0.14200
H198        H  0.64840467  0.87671607  0.20150301     0.14200
H199        H  0.89924436  0.83577622  0.02245317     0.12500
H200        H  0.82414294  0.90271817  0.02182664     0.12500
H201        H  0.67374898  0.59532617  0.18443304     0.12500
H202        H  0.60300784  0.66532368  0.18970756     0.12500
H203        H  0.78891492  0.73588297  0.12388626     0.25800
H204        H  0.71482325  0.78274229  0.10659996     0.25800
N205        N  0.68788139  0.20352560  0.11881228    -0.37000
N206        N  0.79439135  0.19499041  0.09013271    -0.57600
N207        N  0.80303430  0.30424967  0.11739190    -0.37000
N208        N  0.69954558  0.30938589  0.14823115    -0.57600
C209        C  0.68956095  0.15353338  0.10699729     0.26600
C210        C  0.64135679  0.21129618  0.13705090     0.26600
C211        C  0.85142856  0.28686452  0.11002776     0.26600
C212        C  0.80727114  0.34354346  0.14495359     0.26600
C213        C  0.77264324  0.15670270  0.06801625     0.35200
C214        C  0.83443178  0.21202933  0.06676021     0.35200
C215        C  0.64990009  0.30257690  0.15995005     0.35200
C216        C  0.71354858  0.35760241  0.15873382     0.35200
C217        C  0.64395701  0.12983398  0.11918640    -0.22300
C218        C  0.61266436  0.16707991  0.13412876    -0.22300
C219        C  0.88677352  0.31466116  0.13217154    -0.22300
C220        C  0.85954431  0.35021312  0.15361265    -0.22300
C221        C  0.79991386  0.14928001  0.03093660    -0.23300
C222        C  0.83900192  0.18415613  0.03027790    -0.23300
C223        C  0.63104067  0.34773435  0.17640970    -0.23300
C224        C  0.67106098  0.38275150  0.17523313    -0.23300
C225        C  0.72667636  0.13097918  0.07960694    -0.18700
C226        C  0.62419361  0.25452860  0.16022684    -0.18700
C227        C  0.76584565  0.37406927  0.16150764    -0.18700
C228        C  0.86573062  0.25340347  0.07795982    -0.18700
H229        H  0.63252568  0.09021776  0.11642482     0.14200
H230        H  0.57240399  0.16289391  0.14128882     0.14200
H231        H  0.92831534  0.31116581  0.13134685     0.14200
H232        H  0.87875658  0.37770960  0.17231343     0.14200
H233        H  0.79124899  0.12422807  0.00519798     0.12500
H234        H  0.86584071  0.18968837  0.00476640     0.12500
H235        H  0.59309922  0.35425371  0.18937904     0.12500
H236        H  0.66960679  0.42101386  0.18791630     0.12500
H237        H  0.71583439  0.23095174  0.11346571     0.25800
H238        H  0.77059846  0.29424430  0.10009756     0.25800
O239        O  0.44143217  0.73432994  0.28145495    -0.82200
C240        C  0.49782453  0.91164807  0.19352585     0.97200
O241        O  0.45759562  0.88584968  0.20007696    -0.71300
O242        O  0.40753194  0.79940366  0.21487906    -0.74900
Al243      Al  0.44124969  0.84694889  0.24992938     1.49000
C244        C  0.42050255  0.76224182  0.19201866     0.92400
O245        O  0.56847671  0.74246314  0.21559848    -0.81100
O246        O  0.59519810  0.80286158  0.28405161    -0.74700
Al247      Al  0.50351191  0.74533203  0.24823461     1.90100
O248        O  0.57870739  0.82271901  0.20078786    -0.73700
O249        O  0.54066241  0.88346097  0.30469693    -0.73600
O250        O  0.53518313  0.90703590  0.21850425    -0.79300
O251        O  0.46133656  0.90113743  0.28778246    -0.77500
O252        O  0.50053966  0.81419275  0.25034590    -1.13600
O253        O  0.41893925  0.81266753  0.29697452    -0.72800
C254        C  0.41420731  0.76522229  0.30251142     0.97900
C255        C  0.59401379  0.77759020  0.19716771     0.94300
Al256      Al  0.55759060  0.85068733  0.25203037     1.55600
O257        O  0.46422125  0.74130627  0.19653451    -0.77400
C258        C  0.49947509  0.90733150  0.31208441     0.98500
C259        C  0.58359324  0.76390268  0.30548476     0.93400
O260        O  0.54164493  0.74053648  0.29959743    -0.82700
O261        O  0.75060024  0.95731049  0.04318545    -0.82200
C262        C  0.57958076  0.99595691  0.43860226     0.97200
O263        O  0.58250682  0.95681685  0.46256972    -0.71300
O264        O  0.67020852  0.90862753  0.45988958    -0.74900
Al265      Al  0.63591919  0.93812665  0.00421869     1.49000
C266        C  0.71512205  0.91026455  0.44535513     0.92400
O267        O  0.73763997  0.04731543  0.44725427    -0.81100
O268        O  0.66308983  0.07740055  0.04978761    -0.74700
Al269      Al  0.73820631  0.00157893  0.49604627     1.90100
O270        O  0.67634213  0.09584562  0.47010717    -0.73700
O271        O  0.57539167  0.03257280  0.03724138    -0.73600
O272        O  0.59901844  0.03760831  0.45041552    -0.79300
O273        O  0.59964083  0.95635237  0.05353726    -0.77500
O274        O  0.66922175  0.99769375  0.50052493    -1.13600
O275        O  0.68192755  0.90836052  0.04232508    -0.72800
C276        C  0.72587448  0.91871151  0.05627214     0.97900
C277        C  0.71329672  0.08915415  0.44569895     0.94300
Al278      Al  0.63166814  0.05491221  0.00155640     1.55600
O279        O  0.74572047  0.94496448  0.45725296    -0.77400
C280        C  0.57571211  0.99604633  0.06307845     0.98500
C281        C  0.71053133  0.08536606  0.05446239     0.93400
O282        O  0.74320784  0.05862961  0.03449857    -0.82700
O283        O  0.26302528  0.95218595  0.45018516    -0.82200
C284        C  0.42666348  0.00458640  0.06418277     0.97200
O285        O  0.41973813  0.96317424  0.04481593    -0.71300
O286        O  0.33368469  0.91503772  0.04979855    -0.74900
Al287      Al  0.37054112  0.94012440  0.50405144     1.49000
C288        C  0.28601493  0.90887016  0.05499069     0.92400
O289        O  0.25453282  0.04074015  0.04691286    -0.81100
O290        O  0.33309436  0.08262477  0.45264228    -0.74700
Al291      Al  0.26391560  0.99599586  0.49868321     1.90100
O292        O  0.32028407  0.09134369  0.03447891    -0.73700
O293        O  0.42030930  0.03825331  0.46065313    -0.73600
O294        O  0.40802120  0.04524727  0.04939524    -0.79300
O295        O  0.41304346  0.95556225  0.45571291    -0.77500
O296        O  0.33393085  0.99820863  0.50086924    -1.13600
O297        O  0.32787953  0.90329159  0.46765248    -0.72800
C298        C  0.28847187  0.91136099  0.44574819     0.97900
C299        C  0.27867363  0.08219008  0.05352598     0.94300
Al300      Al  0.36759207  0.05832553  0.49958726     1.55600
O301        O  0.25516972  0.93741884  0.03536530    -0.77400
C302        C  0.43006133  0.99730588  0.44140377     0.98500
C303        C  0.28594812  0.08423180  0.44417853     0.93400
O304        O  0.25566814  0.05274663  0.46119552    -0.82700
O305        O  0.44221690  0.26040674  0.21035978    -0.82200
C306        C  0.50408807  0.09017212  0.31087885     0.97200
O307        O  0.46280645  0.11346283  0.30275846    -0.71300
O308        O  0.40712723  0.19526220  0.28596794    -0.74900
Al309      Al  0.44364591  0.15034835  0.25209926     1.49000
C310        C  0.41349847  0.23695154  0.30466778     0.92400
O311        O  0.55620051  0.26546670  0.28621461    -0.81100
O312        O  0.59667118  0.20203650  0.21587071    -0.74700
Al313      Al  0.49907330  0.25694079  0.24861625     1.90100
O314        O  0.58316003  0.18692291  0.29836592    -0.73700
O315        O  0.54589030  0.11647822  0.19919243    -0.73600
O316        O  0.54225333  0.09749954  0.28687797    -0.79300
O317        O  0.46638028  0.09789665  0.21473332    -0.77500
O318        O  0.50119224  0.18747981  0.25015361    -1.13600
O319        O  0.41600807  0.18120479  0.20532926    -0.72800
C320        C  0.41264849  0.22731253  0.19451234     0.97900
C321        C  0.58536156  0.23425734  0.30521178     0.94300
Al322      Al  0.56127063  0.15406241  0.25000901     1.55600
O323        O  0.45320197  0.26360388  0.29710999    -0.77400
C324        C  0.50500469  0.09246044  0.19094857     0.98500
C325        C  0.58606004  0.24108038  0.19422888     0.93400
O326        O  0.54378669  0.26380258  0.19983979    -0.82700
C327        C  0.49972474  0.95455621  0.16089487     0.86100
C328        C  0.45352476  0.96160077  0.13120353    -0.54100
C329        C  0.45571683  0.00401549  0.10528351     0.09000
C330        C  0.50397807  0.03742478  0.11405900     0.20000
C331        C  0.54597041  0.95576231  0.13055722    -0.54900
C332        C  0.54702505  0.99787794  0.10405059     0.09100
C333        C  0.50337627  0.00294001  0.18528003    -0.54400
C334        C  0.50578983  0.04643498  0.16324670     0.09700
H335        H  0.42792870  0.93062184  0.12514332     0.14200
H336        H  0.50574888  0.07294074  0.09483165     0.00000
H337        H  0.57148308  0.92320041  0.12692086     0.14500
H338        H  0.50377062  0.00293214  0.21915105     0.14300
C339        C  0.50477253  0.04571203  0.34317695     0.86100
C340        C  0.46120689  0.04314228  0.37620416    -0.54100
C341        C  0.46045401  0.99952265  0.40094863     0.09000
C342        C  0.50373209  0.96129946  0.38888315     0.20000
C343        C  0.55344661  0.03776044  0.37042372    -0.54900
C344        C  0.55171054  0.99529147  0.39688081     0.09100
C345        C  0.49954040  0.99763923  0.31825673    -0.54400
C346        C  0.50007648  0.95346013  0.33974829     0.09700
H347        H  0.43901712  0.07635130  0.38398671     0.14200
H348        H  0.50347306  0.92522395  0.40745604     0.00000
H349        H  0.58278382  0.06706872  0.37280259     0.14500
H350        H  0.49631980  0.99843889  0.28452790     0.14300
O351        O  0.75495181  0.54586958  0.29251541    -0.82200
C352        C  0.92191710  0.49933297  0.18256029     0.97200
O353        O  0.92162403  0.53796482  0.20648923    -0.71300
O354        O  0.83449083  0.58361848  0.19772319    -0.74900
Al355      Al  0.86737524  0.56060939  0.24495103     1.49000
C356        C  0.78790322  0.59080183  0.18966135     0.92400
O357        O  0.75819830  0.45920438  0.19397070    -0.81100
O358        O  0.83364413  0.42324160  0.29660013    -0.74700
Al359      Al  0.76145897  0.50280638  0.24392028     1.90100
O360        O  0.81671378  0.40628433  0.21619155    -0.73700
O361        O  0.92215693  0.46598199  0.28184279    -0.73600
O362        O  0.89853088  0.45947387  0.19433700    -0.79300
O363        O  0.90497234  0.54541369  0.29555769    -0.77500
O364        O  0.83100674  0.50282598  0.24573765    -1.13600
O365        O  0.82097280  0.59609052  0.27909550    -0.72800
C366        C  0.77964676  0.58700140  0.29849687     0.97900
C367        C  0.78037189  0.41607280  0.19163558     0.94300
Al368      Al  0.86516278  0.44432270  0.24696219     1.55600
O369        O  0.75455691  0.56271184  0.20742884    -0.77400
C370        C  0.92688574  0.50431236  0.30559085     0.98500
C371        C  0.78592048  0.41637601  0.30146084     0.93400
O372        O  0.75410379  0.44372150  0.28101112    -0.82700
O373        O  0.06233263  0.75856628  0.03272352    -0.82200
C374        C  0.99715267  0.59083150  0.43526441     0.97200
O375        O  0.03770563  0.61663326  0.43970233    -0.71300
O376        O  0.09506900  0.69564764  0.45882449    -0.74900
Al377      Al  0.05811232  0.64959036  0.49136466     1.49000
C378        C  0.08755793  0.73733516  0.44039112     0.92400
O379        O  0.94395240  0.76343555  0.45734004    -0.81100
O380        O  0.90890954  0.69929389  0.03416459    -0.74700
Al381      Al  0.00325682  0.75573923  0.49506778     1.90100
O382        O  0.91451477  0.68494325  0.45313004    -0.73700
O383        O  0.96131881  0.61691506  0.05069683    -0.73600
O384        O  0.96081634  0.59653312  0.46177536    -0.79300
O385        O  0.03624416  0.59371620  0.02738080    -0.77500
O386        O  0.00091620  0.68661012  0.49510294    -1.13600
O387        O  0.08487441  0.67847644  0.03861950    -0.72800
C388        C  0.09005956  0.72417638  0.04964011     0.97900
C389        C  0.91320405  0.73098439  0.44128840     0.94300
Al390      Al  0.94173203  0.65254972  0.49948066     1.55600
O391        O  0.04672004  0.76206268  0.44646223    -0.77400
C392        C  0.00089249  0.58974941  0.05475765     0.98500
C393        C  0.92056721  0.73998679  0.05248090     0.93400
O394        O  0.96145888  0.76339927  0.04380046    -0.82700
O395        O  0.05557081  0.23481279  0.46041080    -0.82200
C396        C  0.00109196  0.40805196  0.05535762     0.97200
O397        O  0.04230976  0.38555755  0.04546216    -0.71300
O398        O  0.09389427  0.29978695  0.03007002    -0.74900
Al399      Al  0.05819035  0.34657439  0.49537156     1.49000
C400        C  0.08387456  0.26071530  0.05196063     0.92400
O401        O  0.93840121  0.23696752  0.03328552    -0.81100
O402        O  0.90355607  0.30233750  0.46190327    -0.74700
Al403      Al  0.99727695  0.24283502  0.49688592     1.90100
O404        O  0.91536436  0.31640764  0.04435645    -0.73700
O405        O  0.95717604  0.38625420  0.44537071    -0.73600
O406        O  0.96186496  0.40167070  0.03272459    -0.79300
O407        O  0.03799739  0.40069887  0.45788982    -0.77500
O408        O  0.99850533  0.31235221  0.49605764    -1.13600
O409        O  0.08140346  0.31315448  0.44732126    -0.72800
C410        C  0.08491793  0.26573473  0.44133047     0.97900
C411        C  0.90971106  0.26932443  0.05107753     0.94300
Al412      Al  0.94009583  0.34827128  0.49595894     1.55600
O413        O  0.04167109  0.23712391  0.04650350    -0.77400
C414        C  0.99879722  0.40816239  0.43536703     0.98500
C415        C  0.91177767  0.26224566  0.44120378     0.93400
O416        O  0.95265788  0.23686707  0.44748011    -0.82700
O417        O  0.23805369  0.45235413  0.29881026    -0.82200
C418        C  0.07350704  0.50340851  0.18447321     0.97200
O419        O  0.07737058  0.46513919  0.20846975    -0.71300
O420        O  0.16601845  0.42044437  0.19484102    -0.74900
Al421      Al  0.13314465  0.44254732  0.24396152     1.49000
C422        C  0.21391492  0.41252975  0.19115595     0.92400
O423        O  0.25102841  0.54229301  0.20299887    -0.81100
O424        O  0.16916062  0.58704168  0.28898951    -0.74700
Al425      Al  0.23868060  0.49723370  0.25004125     1.90100
O426        O  0.18248885  0.59098447  0.20780319    -0.73700
O427        O  0.08131282  0.53951327  0.28453507    -0.73600
O428        O  0.09650783  0.54386051  0.19412243    -0.79300
O429        O  0.09891952  0.45895557  0.29604788    -0.77500
O430        O  0.16942017  0.50027731  0.24565867    -1.13600
O431        O  0.17873804  0.40196645  0.27508664    -0.72800
C432        C  0.21499920  0.40984911  0.29993877     0.97900
C433        C  0.22627304  0.58192996  0.19246327     0.94300
Al434      Al  0.13516683  0.55967396  0.24392809     1.55600
O435        O  0.24530647  0.43976908  0.21190761    -0.77400
C436        C  0.07826337  0.50018238  0.30812464     0.98500
C437        C  0.21447449  0.58602278  0.30226488     0.93400
O438        O  0.24518982  0.55278913  0.28865100    -0.82700
C439        C  0.00029095  0.45142452  0.08772762     0.86100
C440        C  0.04413335  0.45587380  0.12016220    -0.54100
C441        C  0.04309951  0.49962482  0.14432308     0.09000
C442        C  0.99775882  0.53567664  0.13245963     0.20000
C443        C  0.95157452  0.45682360  0.11548334    -0.54900
C444        C  0.95143610  0.49929266  0.14139116     0.09100
C445        C  0.00313138  0.49951122  0.06219733    -0.54400
C446        C  0.00075212  0.54368345  0.08311902     0.09700
H447        H  0.06781655  0.42384007  0.12831016     0.14200
H448        H  0.99669621  0.57169761  0.15080443     0.00000
H449        H  0.92375042  0.42611755  0.11843276     0.14500
H450        H  0.00661856  0.49860030  0.02833610     0.14300
C451        C  0.99981330  0.45212527  0.40307969     0.86100
C452        C  0.95676058  0.45585184  0.36981938    -0.54100
C453        C  0.95726824  0.49999528  0.34576034     0.09000
C454        C  0.00186055  0.53666776  0.35804938     0.20000
C455        C  0.04897538  0.45860989  0.37598844    -0.54900
C456        C  0.04895449  0.50100235  0.34966841     0.09100
C457        C  0.99538663  0.50011344  0.42845370    -0.54400
C458        C  0.99725540  0.54447924  0.40733198     0.09700
H459        H  0.93514899  0.42290801  0.36047639     0.14200
H460        H  0.00285820  0.57280732  0.33959734     0.00000
H461        H  0.07703610  0.42815942  0.37327052     0.14500
H462        H  0.99133625  0.49900278  0.46226719     0.14300
N463        N  0.30501622  0.19468143  0.12218607    -0.37000
N464        N  0.19699879  0.18966024  0.09660484    -0.57600
N465        N  0.18891880  0.29404812  0.12911074    -0.37000
N466        N  0.29702120  0.30046217  0.15419585    -0.57600
C467        C  0.30308819  0.14668553  0.10608446     0.26600
C468        C  0.35327757  0.20186592  0.13745302     0.26600
C469        C  0.14393281  0.28986088  0.10756000     0.26600
C470        C  0.19539122  0.34473976  0.13784497     0.26600
C471        C  0.21076394  0.14274941  0.08260680     0.35200
C472        C  0.14814840  0.19849359  0.08372824     0.35200
C473        C  0.34158523  0.28691178  0.17322236     0.35200
C474        C  0.27962972  0.34291373  0.17402711     0.35200
C475        C  0.35052707  0.12364442  0.11170691    -0.22300
C476        C  0.38278338  0.15906026  0.12833522    -0.22300
C477        C  0.12081467  0.33711362  0.10681309    -0.22300
C478        C  0.15501629  0.37201235  0.12136981    -0.22300
C479        C  0.16906769  0.12029481  0.06275675    -0.23300
C480        C  0.12960103  0.15561917  0.06330419    -0.23300
C481        C  0.35320466  0.32235218  0.20416424    -0.23300
C482        C  0.31461596  0.35746476  0.20449420    -0.23300
C483        C  0.26174354  0.12280199  0.08394473    -0.18700
C484        C  0.36982061  0.24132961  0.16526681    -0.18700
C485        C  0.23175359  0.36694522  0.16563103    -0.18700
C486        C  0.12354333  0.24699513  0.08501350    -0.18700
H487        H  0.36062433  0.08447287  0.10546507     0.14200
H488        H  0.42304849  0.15236510  0.13505619     0.14200
H489        H  0.08189113  0.34461970  0.09829884     0.14200
H490        H  0.15003775  0.41301444  0.12162144     0.14200
H491        H  0.16726396  0.08289990  0.04848874     0.12500
H492        H  0.09205618  0.15065640  0.04925529     0.12500
H493        H  0.38475900  0.32334606  0.22598902     0.12500
H494        H  0.31337423  0.38866653  0.22629262     0.12500
H495        H  0.27553370  0.22086517  0.12286154     0.25800
H496        H  0.21031950  0.26409498  0.14129478     0.25800
N497        N  0.68600560  0.79439797  0.88054172    -0.37000
N498        N  0.69543192  0.68942642  0.84600784    -0.57600
N499        N  0.80590406  0.69753246  0.86715923    -0.37000
N500        N  0.79497300  0.80008957  0.90300914    -0.57600
C501        C  0.63824104  0.78715502  0.86453170     0.26600
C502        C  0.68829478  0.84323262  0.89484712     0.26600
C503        C  0.80234620  0.64866856  0.85318954     0.26600
C504        C  0.85307280  0.70283797  0.88503043     0.26600
C505        C  0.64945808  0.70195475  0.82900973     0.35200
C506        C  0.71277508  0.64839797  0.82441644     0.35200
C507        C  0.78130523  0.84709166  0.91703238     0.35200
C508        C  0.84476453  0.79207850  0.91395350     0.35200
C509        C  0.60899683  0.83041883  0.87151233    -0.22300
C510        C  0.64089866  0.86649193  0.88784030    -0.22300
C511        C  0.84793525  0.62335267  0.86130365    -0.22300
C512        C  0.88063361  0.65790427  0.87860051    -0.22300
C513        C  0.63650437  0.66713901  0.79794434    -0.23300
C514        C  0.67652489  0.63327982  0.79506047    -0.23300
C515        C  0.82397037  0.87022310  0.93498540    -0.23300
C516        C  0.86367840  0.83559900  0.93325645    -0.23300
C517        C  0.62199014  0.74754296  0.83711149    -0.18700
C518        C  0.73020916  0.86739137  0.91626113    -0.18700
C519        C  0.87132573  0.74454139  0.91019534    -0.18700
C520        C  0.76252914  0.62712092  0.82840358    -0.18700
H521        H  0.56884472  0.83574843  0.86421442     0.14200
H522        H  0.62989519  0.90575981  0.89341342     0.14200
H523        H  0.85712187  0.58396007  0.85462672     0.14200
H524        H  0.92049564  0.64996350  0.88583215     0.14200
H525        H  0.60297693  0.66736657  0.77784561     0.12500
H526        H  0.67942576  0.60278765  0.77234305     0.12500
H527        H  0.82741912  0.90817021  0.94778900     0.12500
H528        H  0.90213094  0.84280657  0.94458126     0.12500
H529        H  0.71439461  0.76707797  0.88263168     0.25800
H530        H  0.77952347  0.72622748  0.86156055     0.25800
N531        N  0.79251328  0.19898428  0.90439904    -0.37000
N532        N  0.68826555  0.20401498  0.87528048    -0.57600
N533        N  0.69962660  0.31022175  0.84208500    -0.37000
N534        N  0.80695360  0.29949214  0.86670906    -0.57600
C535        C  0.77828610  0.15013000  0.91304053     0.26600
C536        C  0.84393827  0.20328520  0.91021541     0.26600
C537        C  0.65954566  0.29174084  0.81984925     0.26600
C538        C  0.72273901  0.34594340  0.81770922     0.26600
C539        C  0.68391913  0.16302042  0.90125017     0.35200
C540        C  0.63973134  0.21990759  0.86690907     0.35200
C541        C  0.85355114  0.29337470  0.88532608     0.35200
C542        C  0.80350617  0.35020085  0.85704057     0.35200
C543        C  0.82209131  0.12260638  0.92394651    -0.22300
C544        C  0.86332591  0.15634478  0.92263274    -0.22300
C545        C  0.65659807  0.31655955  0.78142568    -0.22300
C546        C  0.69645937  0.35079195  0.78010572    -0.22300
C547        C  0.63173323  0.15339460  0.90822335    -0.23300
C548        C  0.60426336  0.18940433  0.88708299    -0.23300
C549        C  0.87999332  0.33892690  0.88378541    -0.23300
C550        C  0.84662350  0.37550046  0.87063273    -0.23300
C551        C  0.72618688  0.13317510  0.91700458    -0.18700
C552        C  0.87162769  0.25007639  0.90848874    -0.18700
C553        C  0.76830213  0.37202030  0.82819039    -0.18700
C554        C  0.62675832  0.25219449  0.83334363    -0.18700
H555        H  0.82433661  0.08301495  0.93365918     0.14200
H556        H  0.90276628  0.14753753  0.93075249     0.14200
H557        H  0.63002992  0.30956592  0.75613489     0.14200
H558        H  0.70641394  0.37403249  0.75332293     0.14200
H559        H  0.61330711  0.12309928  0.92512898     0.12500
H560        H  0.56271728  0.19091120  0.88441329     0.12500
H561        H  0.91985414  0.34421254  0.89102397     0.12500
H562        H  0.85366658  0.41615169  0.86905581     0.12500
H563        H  0.76767423  0.22983461  0.90186736     0.25800
H564        H  0.70969515  0.30012245  0.87275546     0.25800
N565        N  0.19056629  0.29736598  0.87322946    -0.37000
N566        N  0.29589300  0.30373237  0.84497255    -0.57600
N567        N  0.30647433  0.19968427  0.87717888    -0.37000
N568        N  0.19950302  0.19009663  0.90323494    -0.57600
C569        C  0.18695510  0.33680682  0.84555151     0.26600
C570        C  0.14192066  0.28098738  0.88112163     0.26600
C571        C  0.35355509  0.20673861  0.85947895     0.26600
C572        C  0.30359481  0.14960269  0.88887904     0.26600
C573        C  0.28114745  0.35073076  0.83174546     0.35200
C574        C  0.34569233  0.29718376  0.83365212     0.35200
C575        C  0.15636553  0.20428757  0.92385468     0.35200
C576        C  0.21837881  0.14921850  0.92423050     0.35200
C577        C  0.13475301  0.34482948  0.83718657    -0.22300
C578        C  0.10696169  0.30969217  0.85908472    -0.22300
C579        C  0.38086406  0.16170811  0.86292995    -0.22300
C580        C  0.34804165  0.12502585  0.87703843    -0.22300
C581        C  0.32309289  0.37526136  0.81339968    -0.23300
C582        C  0.36362779  0.34118015  0.81418770    -0.23300
C583        C  0.14639428  0.17094873  0.95662969    -0.23300
C584        C  0.18529423  0.13598355  0.95671631    -0.23300
C585        C  0.22882528  0.36688359  0.82909069    -0.18700
C586        C  0.12718508  0.24776696  0.91358954    -0.18700
C587        C  0.26694235  0.12681425  0.91634627    -0.18700
C588        C  0.37240375  0.24995216  0.83636668    -0.18700
H589        H  0.11609602  0.37357875  0.81890834     0.14200
H590        H  0.06535527  0.30725276  0.86049606     0.14200
H591        H  0.42101003  0.15651056  0.85629354     0.14200
H592        H  0.35642414  0.08478994  0.88034621     0.14200
H593        H  0.32419929  0.41262539  0.79879054     0.12500
H594        H  0.40139902  0.34773699  0.80085533     0.12500
H595        H  0.11518966  0.17146823  0.97886669     0.12500
H596        H  0.18884752  0.10591677  0.97960532     0.12500
H597        H  0.22274372  0.28730937  0.89073880     0.25800
H598        H  0.27956742  0.22765225  0.88332307     0.25800
N599        N  0.30966157  0.79951369  0.87266604    -0.37000
N600        N  0.29740839  0.69398996  0.84216380    -0.57600
N601        N  0.19226703  0.70102196  0.87126637    -0.37000
N602        N  0.20389419  0.80782263  0.90065644    -0.57600
C603        C  0.35839117  0.78589769  0.86229673     0.26600
C604        C  0.31314253  0.84344279  0.89514561     0.26600
C605        C  0.19047486  0.65384268  0.85350325     0.26600
C606        C  0.14356240  0.71283687  0.88306637     0.26600
C607        C  0.34486223  0.70312037  0.82627928     0.35200
C608        C  0.28209848  0.64785725  0.82772856     0.35200
C609        C  0.22107624  0.85135245  0.91875069     0.35200
C610        C  0.15697157  0.79778519  0.91726921     0.35200
C611        C  0.39289878  0.82102071  0.87833611    -0.22300
C612        C  0.36450552  0.85828622  0.89661196    -0.22300
C613        C  0.14040507  0.63507867  0.85727601    -0.22300
C614        C  0.11077741  0.67317790  0.87280078    -0.22300
C615        C  0.36122114  0.66152599  0.80331539    -0.23300
C616        C  0.32210156  0.62645932  0.80458893    -0.23300
C617        C  0.18343517  0.87011237  0.94566921    -0.23300
C618        C  0.14318610  0.83602958  0.94493293    -0.23300
C619        C  0.37287023  0.74876090  0.83237781    -0.18700
C620        C  0.27251072  0.86991730  0.91621882    -0.18700
C621        C  0.12817647  0.75279548  0.91009739    -0.18700
C622        C  0.23096547  0.62816717  0.83128499    -0.18700
H623        H  0.43433646  0.82176866  0.87438671     0.14200
H624        H  0.38068302  0.89332725  0.90799791     0.14200
H625        H  0.12571634  0.59724921  0.85078203     0.14200
H626        H  0.06984703  0.67063927  0.87877765     0.14200
H627        H  0.39786473  0.65538827  0.78820149     0.12500
H628        H  0.32460270  0.58968424  0.78969776     0.12500
H629        H  0.18531012  0.90314014  0.96584001     0.12500
H630        H  0.10849517  0.83849546  0.96364722     0.12500
H631        H  0.27648713  0.78352014  0.86031051     0.25800
H632        H  0.22483543  0.72170533  0.87887230     0.25800
N633        N  0.20192577  0.68876453  0.62061691    -0.37000
N634        N  0.20695374  0.79363240  0.58984360    -0.57600
N635        N  0.31441248  0.79122963  0.61635861    -0.37000
N636        N  0.31115201  0.68604001  0.64714384    -0.57600
C637        C  0.15496613  0.69215847  0.60184153     0.26600
C638        C  0.20792571  0.63950124  0.63354944     0.26600
C639        C  0.30654486  0.84174048  0.60796425     0.26600
C640        C  0.36087922  0.78809136  0.63582278     0.26600
C641        C  0.15815367  0.78427245  0.57736102     0.35200
C642        C  0.21941281  0.84136535  0.57663885     0.35200
C643        C  0.29522909  0.64254804  0.66642816     0.35200
C644        C  0.35720892  0.69847194  0.66413586     0.35200
C645        C  0.13060205  0.64472909  0.60603361    -0.22300
C646        C  0.16478206  0.61145429  0.62306709    -0.22300
C647        C  0.34688328  0.86984431  0.62332570    -0.22300
C648        C  0.38311010  0.83595040  0.63596485    -0.22300
C649        C  0.13870213  0.82803558  0.55809525    -0.23300
C650        C  0.17733491  0.86372977  0.55746568    -0.23300
C651        C  0.33263385  0.62578866  0.69422113    -0.23300
C652        C  0.37193705  0.66103512  0.69262383    -0.23300
C653        C  0.13359445  0.73545913  0.57956464    -0.18700
C654        C  0.24592091  0.62022218  0.66135292    -0.18700
C655        C  0.38181118  0.74658253  0.65952445    -0.18700
C656        C  0.26848019  0.86404332  0.58182032    -0.18700
H657        H  0.09112573  0.63434044  0.59969965     0.14200
H658        H  0.15706910  0.57159928  0.63007742     0.14200
H659        H  0.34964129  0.91102068  0.62356782     0.14200
H660        H  0.42190407  0.84484775  0.64448020     0.14200
H661        H  0.10068333  0.83545452  0.54609530     0.12500
H662        H  0.17315551  0.90207938  0.54531982     0.12500
H663        H  0.33150353  0.59251718  0.71442766     0.12500
H664        H  0.40620360  0.66038382  0.71185422     0.12500
H665        H  0.22592857  0.71881807  0.62847205     0.25800
H666        H  0.29233105  0.76086985  0.60584445     0.25800
N667        N  0.81961612  0.71118396  0.62777515    -0.37000
N668        N  0.81482941  0.81803399  0.59832579    -0.57600
N669        N  0.70546679  0.81336302  0.62608826    -0.37000
N670        N  0.71549881  0.71017817  0.66005992    -0.57600
C671        C  0.86831703  0.71956814  0.61373485     0.26600
C672        C  0.81786897  0.66238538  0.64276434     0.26600
C673        C  0.71771604  0.86311476  0.61870598     0.26600
C674        C  0.67240911  0.81267007  0.65917851     0.26600
C675        C  0.85774462  0.80378244  0.57769312     0.35200
C676        C  0.79602656  0.85849119  0.57687110     0.35200
C677        C  0.72510726  0.65972929  0.66565789     0.38800
C678        C  0.66552443  0.71873906  0.66988123     0.35200
C679        C  0.89814155  0.67698462  0.62137993    -0.22300
C680        C  0.86601182  0.64016259  0.63597515    -0.22300
C681        C  0.69365052  0.89450436  0.64692179    -0.22300
C682        C  0.66720516  0.86287932  0.67367655    -0.22300
C683        C  0.86796452  0.83730100  0.54483423    -0.23300
C684        C  0.82857778  0.87197593  0.54424336    -0.23300
C685        C  0.67998818  0.63550106  0.67817416    -0.23300
C686        C  0.64243129  0.67258347  0.68070889    -0.23300
C687        C  0.88423094  0.75782796  0.58496675    -0.18700
C688        C  0.77501466  0.63708515  0.66289151    -0.18700
C689        C  0.64402150  0.76864942  0.67373577    -0.18700
C690        C  0.74877146  0.88152471  0.58598296    -0.18700
H691        H  0.93802612  0.67130741  0.61282805     0.14200
H692        H  0.87756742  0.60057291  0.63821385     0.14200
H693        H  0.69691992  0.93571046  0.64909666     0.14200
H694        H  0.64839949  0.87671836  0.70149983     0.14200
H695        H  0.89924309  0.83577341  0.52245312     0.12500
H696        H  0.82414140  0.90271466  0.52182592     0.12500
H697        H  0.67374982  0.59532586  0.68443781     0.12500
H698        H  0.60301028  0.66532323  0.68971467     0.12500
H699        H  0.78891425  0.73587916  0.62388503     0.25800
H700        H  0.71482477  0.78273983  0.60660302     0.25800
N701        N  0.68788309  0.20352478  0.61881171    -0.37000
N702        N  0.79439231  0.19498989  0.59013170    -0.57600
N703        N  0.80303410  0.30424981  0.61739098    -0.37000
N704        N  0.69954523  0.30938594  0.64822899    -0.57600
C705        C  0.68956328  0.15353238  0.60699708     0.26600
C706        C  0.64135860  0.21129488  0.63705067     0.26600
C707        C  0.85142822  0.28686340  0.61002815     0.26600
C708        C  0.80727075  0.34354235  0.64495394     0.26600
C709        C  0.77264420  0.15670271  0.56801479     0.35200
C710        C  0.83443226  0.21202958  0.56675921     0.35200
C711        C  0.64989991  0.30257642  0.65994819     0.35200
C712        C  0.71354813  0.35760224  0.65873248     0.35200
C713        C  0.64396004  0.12983231  0.61918691    -0.22300
C714        C  0.61266700  0.16707803  0.63412918    -0.22300
C715        C  0.88677284  0.31465791  0.63217398    -0.22300
C716        C  0.85954366  0.35020992  0.65361513    -0.22300
C717        C  0.79991415  0.14928099  0.53093472    -0.23300
C718        C  0.83900205  0.18415740  0.53027629    -0.23300
C719        C  0.63104037  0.34773346  0.67640849    -0.23300
C720        C  0.67106051  0.38275083  0.67523226    -0.23300
C721        C  0.72667805  0.13097868  0.57960594    -0.18700
C722        C  0.62419442  0.25452763  0.66022581    -0.18700
C723        C  0.76584520  0.37406853  0.66150755    -0.18700
C724        C  0.86573096  0.25340336  0.57795975    -0.18700
H725        H  0.63252915  0.09021597  0.61642508     0.14200
H726        H  0.57240653  0.16289199  0.64128863     0.14200
H727        H  0.92831455  0.31116096  0.63135074     0.14200
H728        H  0.87875592  0.37770468  0.67231769     0.14200
H729        H  0.79124894  0.12422916  0.50519608     0.12500
H730        H  0.86584059  0.18969052  0.50476477     0.12500
H731        H  0.59309915  0.35425216  0.68937848     0.12500
H732        H  0.66960628  0.42101273  0.68791634     0.12500
H733        H  0.71583529  0.23095146  0.61346419     0.25800
H734        H  0.77059879  0.29424587  0.60009535     0.25800
O735        O  0.44142940  0.73432931  0.78145414    -0.82200
C736        C  0.49782312  0.91164803  0.69352498     0.97200
O737        O  0.45759400  0.88584990  0.70007598    -0.71300
O738        O  0.40753104  0.79940317  0.71487690    -0.74900
Al739      Al  0.44124746  0.84694851  0.74992807     1.49000
C740        C  0.42050222  0.76224104  0.69201702     0.92400
O741        O  0.56847595  0.74246230  0.71560021    -0.81100
O742        O  0.59519493  0.80286189  0.78405322    -0.74700
Al743      Al  0.50351006  0.74533143  0.74823502     1.90100
O744        O  0.57870618  0.82271780  0.70078890    -0.73700
O745        O  0.54065923  0.88346042  0.80469655    -0.73600
O746        O  0.53518175  0.90703499  0.71850332    -0.79300
O747        O  0.46133349  0.90113695  0.78778198    -0.77500
O748        O  0.50053747  0.81419226  0.75034561    -1.13600
O749        O  0.41893597  0.81266711  0.79697251    -0.72800
C750        C  0.41420435  0.76522200  0.80251009     0.97900
C751        C  0.59401333  0.77758923  0.69716959     0.94300
Al752      Al  0.55758828  0.85068678  0.75203062     1.55600
O753        O  0.46422069  0.74130516  0.69653403    -0.77400
C754        C  0.49947206  0.90733088  0.81208403     0.98500
C755        C  0.58359009  0.76390338  0.80548675     0.93400
O756        O  0.54164204  0.74053659  0.79959895    -0.82700
O757        O  0.75060009  0.95730854  0.54318419    -0.82200
C758        C  0.57958109  0.99595579  0.93860208     0.97200
O759        O  0.58250735  0.95681593  0.96256987    -0.71300
O760        O  0.67020944  0.90862797  0.95989017    -0.74900
Al761      Al  0.63591845  0.93812696  0.50421812     1.49000
C762        C  0.71512320  0.91026473  0.94535626     0.92400
O763        O  0.73763920  0.04731560  0.94725518    -0.81100
O764        O  0.66309120  0.07740134  0.54978636    -0.74700
Al765      Al  0.73820622  0.00157966  0.99604733     1.90100
O766        O  0.67634127  0.09584567  0.97010839    -0.73700
O767        O  0.57539251  0.03257444  0.53724127    -0.73600
O768        O  0.59901804  0.03760749  0.95041559    -0.79300
O769        O  0.59964002  0.95635313  0.55353630    -0.77500
O770        O  0.66922170  0.99769365  0.00052560    -1.13600
O771        O  0.68192622  0.90836020  0.54232457    -0.72800
C772        C  0.72587365  0.91870996  0.55627117     0.97900
C773        C  0.71329585  0.08915428  0.94570011     0.94300
Al774      Al  0.63166897  0.05491287  0.50155574     1.55600
O775        O  0.74572165  0.94496455  0.95725447    -0.77400
C776        C  0.57571159  0.99604719  0.56307763     0.98500
C777        C  0.71053279  0.08536591  0.55446126     0.93400
O778        O  0.74320906  0.05862879  0.53449767    -0.82700
O779        O  0.26302569  0.95218680  0.95018579    -0.82200
C780        C  0.42666211  0.00458784  0.56418275     0.97200
O781        O  0.41973658  0.96317556  0.54481624    -0.71300
O782        O  0.33368358  0.91503870  0.54979841    -0.74900
Al783      Al  0.37054194  0.94012351  0.00405135     1.49000
C784        C  0.28601391  0.90887088  0.55499050     0.92400
O785        O  0.25453131  0.04074168  0.54691032    -0.81100
O786        O  0.33309528  0.08262276  0.95264294    -0.74700
Al787      Al  0.26391639  0.99599552  0.99868455     1.90100
O788        O  0.32028373  0.09134448  0.53447798    -0.73700
O789        O  0.42031038  0.03825256  0.96065377    -0.73600
O790        O  0.40802028  0.04524872  0.54939485    -0.79300
O791        O  0.41304390  0.95556169  0.95571249    -0.77500
O792        O  0.33393171  0.99820778  0.00086993    -1.13600
O793        O  0.32787961  0.90329139  0.96765240    -0.72800
C794        C  0.28847190  0.91136164  0.94574831     0.97900
C795        C  0.27867247  0.08219128  0.55352384     0.94300
Al796      Al  0.36759287  0.05832444  0.99958794     1.55600
O797        O  0.25516864  0.93741978  0.53536519    -0.77400
C798        C  0.43006213  0.99730549  0.94140382     0.98500
C799        C  0.28594891  0.08423151  0.94418032     0.93400
O800        O  0.25566832  0.05274744  0.96119800    -0.82700
O801        O  0.44221800  0.26040604  0.71035782    -0.82200
C802        C  0.50408919  0.09017119  0.81087794     0.97200
O803        O  0.46280749  0.11346179  0.80275766    -0.71300
O804        O  0.40712770  0.19526000  0.78596810    -0.74900
Al805      Al  0.44364579  0.15034773  0.75209869     1.49000
C806        C  0.41349835  0.23694986  0.80466689     0.92400
O807        O  0.55620001  0.26546579  0.78621427    -0.81100
O808        O  0.59667184  0.20203621  0.71587019    -0.74700
Al809      Al  0.49907338  0.25694005  0.74861515     1.90100
O810        O  0.58315994  0.18692205  0.79836527    -0.73700
O811        O  0.54589059  0.11647828  0.69919150    -0.73600
O812        O  0.54225402  0.09749844  0.78687658    -0.79300
O813        O  0.46638019  0.09789716  0.71473177    -0.77500
O814        O  0.50119217  0.18747928  0.75015266    -1.13600
O815        O  0.41600570  0.18120553  0.70532949    -0.72800
C816        C  0.41264847  0.22731292  0.69451057     0.97900
C817        C  0.58536097  0.23425640  0.80521160     0.94300
Al818      Al  0.56127083  0.15406195  0.75000809     1.55600
O819        O  0.45320111  0.26360299  0.79710832    -0.77400
C820        C  0.50500493  0.09246077  0.69094743     0.98500
C821        C  0.58606072  0.24107975  0.69422802     0.93400
O822        O  0.54378742  0.26380203  0.69983892    -0.82700
C823        C  0.49972369  0.95455658  0.66089409     0.86100
C824        C  0.45352307  0.96160226  0.63120366    -0.54100
C825        C  0.45571533  0.00401699  0.60528352     0.09000
C826        C  0.50397732  0.03742534  0.61405826     0.20000
C827        C  0.54596851  0.95576192  0.63055552    -0.54900
C828        C  0.54702347  0.99787787  0.60404925     0.09100
C829        C  0.50337712  0.00294029  0.68527926    -0.54400
C830        C  0.50579034  0.04643529  0.66324581     0.09700
H831        H  0.42792647  0.93062371  0.62514378     0.14200
H832        H  0.50574818  0.07294135  0.59483097     0.00000
H833        H  0.57148079  0.92319978  0.62691882     0.14500
H834        H  0.50377272  0.00293242  0.71915033     0.14300
C835        C  0.50477370  0.04571114  0.84317628     0.86100
C836        C  0.46120876  0.04314253  0.87620434    -0.54100
C837        C  0.46045511  0.99952276  0.90094876     0.09000
C838        C  0.50373196  0.96129867  0.88888271     0.20000
C839        C  0.55344830  0.03775818  0.87042240    -0.54900
C840        C  0.55171149  0.99528961  0.89688001     0.09100
C841        C  0.49953952  0.99763844  0.81825621    -0.54400
C842        C  0.50007454  0.95345948  0.83974790     0.09700
H843        H  0.43901970  0.07635198  0.88398699     0.14200
H844        H  0.50347236  0.92522313  0.90745555     0.00000
H845        H  0.58278639  0.06706565  0.87280071     0.14500
H846        H  0.49631807  0.99843799  0.78452736     0.14300
O847        O  0.75495026  0.54587008  0.79251521    -0.82200
C848        C  0.92191673  0.49932971  0.68256160     0.97200
O849        O  0.92162358  0.53796178  0.70649023    -0.71300
O850        O  0.83449053  0.58361346  0.69772177    -0.74900
Al851      Al  0.86737420  0.56060762  0.74495077     1.49000
C852        C  0.78790303  0.59079895  0.68966111     0.92400
O853        O  0.75819724  0.45920307  0.69397146    -0.81100
O854        O  0.83364143  0.42324190  0.79660199    -0.74700
Al855      Al  0.76145753  0.50280558  0.74392085     1.90100
O856        O  0.81671191  0.40628259  0.71619311    -0.73700
O857        O  0.92215459  0.46598119  0.78184507    -0.73600
O858        O  0.89853022  0.45947082  0.69433862    -0.79300
O859        O  0.90497110  0.54541376  0.79555821    -0.77500
O860        O  0.83100537  0.50282461  0.74573856    -1.13600
O861        O  0.82097106  0.59609085  0.77909384    -0.72800
C862        C  0.77964470  0.58700256  0.79849518     0.97900
C863        C  0.78037085  0.41607147  0.69163634     0.94300
Al864      Al  0.86516093  0.44432127  0.74696400     1.55600
O865        O  0.75455629  0.56271032  0.70742933    -0.77400
C866        C  0.92688433  0.50431248  0.80559208     0.98500
C867        C  0.78591780  0.41637671  0.80146284     0.93400
O868        O  0.75410134  0.44372158  0.78101234    -0.82700
O869        O  0.06233036  0.75856471  0.53272619    -0.82200
C870        C  0.99715322  0.59083282  0.93526459     0.97200
O871        O  0.03770554  0.61663617  0.93970105    -0.71300
O872        O  0.09506997  0.69565076  0.95882468    -0.74900
Al873      Al  0.05811243  0.64959215  0.99136396     1.49000
C874        C  0.08755683  0.73733712  0.94039001     0.92400
O875        O  0.94395060  0.76343560  0.95734100    -0.81100
O876        O  0.90890904  0.69929166  0.53416496    -0.74700
Al877      Al  0.00325678  0.75574017  0.99506689     1.90100
O878        O  0.91451544  0.68494255  0.95313016    -0.73700
O879        O  0.96131666  0.61691241  0.55069588    -0.73600
O880        O  0.96081777  0.59653342  0.96177661    -0.79300
O881        O  0.03624399  0.59371559  0.52738280    -0.77500
O882        O  0.00091642  0.68661140  0.99510253    -1.13600
O883        O  0.08487614  0.67847558  0.53861922    -0.72800
C884        C  0.09005917  0.72417535  0.54964119     0.97900
C885        C  0.91320334  0.73098371  0.94128887     0.94300
Al886      Al  0.94173287  0.65255074  0.99948117     1.55600
O887        O  0.04671735  0.76206255  0.94645976    -0.77400
C888        C  0.00089092  0.58974801  0.55475831     0.98500
C889        C  0.92056616  0.73998478  0.55248102     0.93400
O890        O  0.96145699  0.76339824  0.54380002    -0.82700
O891        O  0.05556967  0.23481140  0.96041007    -0.82200
C892        C  0.00109307  0.40805148  0.55535791     0.97200
O893        O  0.04231122  0.38555791  0.54546206    -0.71300
O894        O  0.09389563  0.29978788  0.53006916    -0.74900
Al895      Al  0.05818964  0.34657345  0.99537200     1.49000
C896        C  0.08387482  0.26071692  0.55196029     0.92400
O897        O  0.93840138  0.23696831  0.53328518    -0.81100
O898        O  0.90355649  0.30233763  0.96190175    -0.74700
Al899      Al  0.99727626  0.24283366  0.99688574     1.90100
O900        O  0.91536609  0.31640824  0.54435839    -0.73700
O901        O  0.95717644  0.38625391  0.94536983    -0.73600
O902        O  0.96186612  0.40167071  0.53272486    -0.79300
O903        O  0.03799753  0.40069830  0.95788998    -0.77500
O904        O  0.99850470  0.31235120  0.99605740    -1.13600
O905        O  0.08140375  0.31315323  0.94732222    -0.72800
C906        C  0.08491759  0.26573355  0.94133069     0.97900
C907        C  0.90971185  0.26932491  0.55107821     0.94300
Al908      Al  0.94009538  0.34827087  0.99595788     1.55600
O909        O  0.04167080  0.23712633  0.54650379    -0.77400
C910        C  0.99879762  0.40816263  0.93536707     0.98500
C911        C  0.91177713  0.26224505  0.94120311     0.93400
O912        O  0.95265644  0.23686538  0.94748028    -0.82700
O913        O  0.23805164  0.45235392  0.79881105    -0.82200
C914        C  0.07350638  0.50340733  0.68447315     0.97200
O915        O  0.07737017  0.46513781  0.70846936    -0.71300
O916        O  0.16601845  0.42044239  0.69484180    -0.74900
Al917      Al  0.13314350  0.44254662  0.74396175     1.49000
C918        C  0.21391521  0.41252925  0.69115596     0.92400
O919        O  0.25102786  0.54229174  0.70299880    -0.81100
O920        O  0.16915919  0.58704135  0.78898842    -0.74700
Al921      Al  0.23867947  0.49723312  0.75004177     1.90100
O922        O  0.18248808  0.59098296  0.70780252    -0.73700
O923        O  0.08131199  0.53951356  0.78453477    -0.73600
O924        O  0.09650682  0.54385941  0.69412243    -0.79300
O925        O  0.09891794  0.45895580  0.79604768    -0.77500
O926        O  0.16941910  0.50027661  0.74565867    -1.13600
O927        O  0.17873558  0.40196659  0.77508740    -0.72800
C928        C  0.21499680  0.40984898  0.79993929     0.97900
C929        C  0.22627238  0.58192850  0.69246269     0.94300
Al930      Al  0.13516586  0.55967325  0.74392758     1.55600
O931        O  0.24530576  0.43976807  0.71190883    -0.77400
C932        C  0.07826244  0.50018288  0.80812450     0.98500
C933        C  0.21447270  0.58602320  0.80226426     0.93400
O934        O  0.24518853  0.55278962  0.78865093    -0.82700
C935        C  0.00029111  0.45142315  0.58772818     0.86100
C936        C  0.04413371  0.45587304  0.62016217    -0.54100
C937        C  0.04309927  0.49962387  0.64432309     0.09000
C938        C  0.99775761  0.53567472  0.63246043     0.20000
C939        C  0.95157504  0.45682042  0.61548460    -0.54900
C940        C  0.95143590  0.49928941  0.64139247     0.09100
C941        C  0.00312980  0.49950998  0.56219797    -0.54400
C942        C  0.00075007  0.54368200  0.58311975     0.09700
H943        H  0.06781574  0.42383894  0.62831103     0.14200
H944        H  0.99669468  0.57169552  0.65080540     0.00000
H945        H  0.92375199  0.42611342  0.61843446     0.14500
H946        H  0.00661664  0.49859941  0.52833664     0.14300
C947        C  0.99981388  0.45212618  0.90308026     0.86100
C948        C  0.95676070  0.45585276  0.86982040    -0.54100
C949        C  0.95726769  0.49999614  0.84576131     0.09000
C950        C  0.00186028  0.53666868  0.85804976     0.20000
C951        C  0.04897559  0.45861100  0.87598866    -0.54900
C952        C  0.04895419  0.50100330  0.84966848     0.09100
C953        C  0.99538755  0.50011445  0.92845424    -0.54400
C954        C  0.99725603  0.54448027  0.90733239     0.09700
H955        H  0.93514889  0.42290887  0.86047788     0.14200
H956        H  0.00285749  0.57280823  0.83959766     0.00000
H957        H  0.07703675  0.42816094  0.87327088     0.14500
H958        H  0.99133729  0.49900381  0.96226767     0.14300
N959        N  0.30501691  0.19468290  0.62218079    -0.37000
N960        N  0.19699756  0.18966047  0.59660411    -0.57600
N961        N  0.18891897  0.29404868  0.62910962    -0.37000
N962        N  0.29702047  0.30046104  0.65419336    -0.57600
C963        C  0.30308601  0.14668497  0.60608328     0.26600
C964        C  0.35327693  0.20186385  0.63745190     0.26600
C965        C  0.14393170  0.28986100  0.60756066     0.26600
C966        C  0.19539026  0.34474011  0.63784490     0.26600
C967        C  0.21076306  0.14275108  0.58260333     0.35200
C968        C  0.14814785  0.19849486  0.58372638     0.35200
C969        C  0.34159249  0.28691828  0.67321116     0.35200
C970        C  0.27963594  0.34292029  0.67401771     0.35200
C971        C  0.35052204  0.12363983  0.61171014    -0.22300
C972        C  0.38277952  0.15905427  0.62833872    -0.22300
C973        C  0.12081190  0.33711297  0.60681548    -0.22300
C974        C  0.15501359  0.37201197  0.62137169    -0.22300
C975        C  0.16906768  0.12029805  0.56275098    -0.23300
C976        C  0.12960115  0.15562226  0.56329946    -0.23300
C977        C  0.35322509  0.32237304  0.70413886    -0.23300
C978        C  0.31463608  0.35748529  0.70446991    -0.23300
C979        C  0.26174203  0.12280312  0.58394202    -0.18700
C980        C  0.36982268  0.24133061  0.66526222    -0.18700
C981        C  0.23175508  0.36694696  0.66562832    -0.18700
C982        C  0.12354293  0.24699611  0.58501305    -0.18700
H983        H  0.36061705  0.08446730  0.60546919     0.14200
H984        H  0.42304385  0.15235663  0.63506092     0.14200
H985        H  0.08188803  0.34461847  0.59830127     0.14200
H986        H  0.15003519  0.41301408  0.62162296     0.14200
H987        H  0.16726434  0.08290408  0.54848135     0.12500
H988        H  0.09205678  0.15066061  0.54924955     0.12500
H989        H  0.38479089  0.32338091  0.72595209     0.12500
H990        H  0.31340784  0.38869926  0.72625725     0.12500
H991        H  0.27553852  0.22087188  0.62284648     0.25800
H992        H  0.21032218  0.26409567  0.64129093     0.25800
loop_ 
_geom_bond_atom_site_label_1 
_geom_bond_atom_site_label_2 
_geom_bond_distance 
_geom_bond_site_symmetry_2 
_ccdc_geom_bond_type 
N1            C6   1.358       .  A
N1            C5   1.355       .  A
N1           H33   1.029       .  S
N2            C9   1.352       .  A
N2           C10   1.354       .  A
N3            C8   1.359       .  A
N3            C7   1.357       .  A
N3           H34   1.032       .  S
N4           C11   1.357       .  A
N4           C12   1.356       .  A
C5           C13   1.382       .  A
C5           C21   1.421       .  A
C6           C22   1.432       .  A
C6           C14   1.392       .  A
C7           C15   1.382       .  A
C7           C24   1.419       .  A
C8           C23   1.436       .  A
C8           C16   1.392       .  A
C9           C21   1.414       .  A
C9           C17   1.388       .  A
C10          C24   1.414       .  A
C10          C18   1.386       .  A
C11          C19   1.387       .  A
C11          C22   1.431       .  A
C12          C20   1.385       .  A
C12          C23   1.428       .  A
C13          C14   1.360       .  A
C13          H25   1.078       .  S
C14          H26   1.081       .  S
C15          C16   1.358       .  A
C15          H27   1.079       .  S
C16          H28   1.081       .  S
C17          C18   1.370       .  A
C17          H29   1.081       .  S
C18          H30   1.081       .  S
C19          C20   1.375       .  A
C19          H31   1.078       .  S
C20          H32   1.079       .  S
C21         C259   1.480       .  S
C22         C266   1.509       .  S
C23         C389   1.513       .  S
C24         C366   1.487       .  S
N35          C40   1.353       .  A
N35          C39   1.356       .  A
N35          H67   1.037       .  S
N36          C43   1.355       .  A
N36          C44   1.355       .  A
N37          C42   1.350       .  A
N37          C41   1.350       .  A
N37          H68   1.044       .  S
N38          C45   1.358       .  A
N38          C46   1.362       .  A
C39          C47   1.391       .  A
C39          C55   1.428       .  A
C40          C56   1.418       .  A
C40          C48   1.383       .  A
C41          C49   1.384       .  A
C41          C58   1.403       .  A
C42          C57   1.406       .  A
C42          C50   1.384       .  A
C43          C55   1.438       .  A
C43          C51   1.395       .  A
C44          C58   1.400       .  A
C44          C52   1.374       .  A
C45          C53   1.374       .  A
C45          C56   1.428       .  A
C46          C54   1.371       .  A
C46          C57   1.416       .  A
C47          C48   1.387       .  A
C47          H59   1.080       .  S
C48          H60   1.082       .  S
C49          C50   1.368       .  A
C49          H61   1.077       .  S
C50          H62   1.075       .  S
C51          C52   1.359       .  A
C51          H63   1.067       .  S
C52          H64   1.083       .  S
C53          C54   1.357       .  A
C53          H65   1.070       .  S
C54          H66   1.079       .  S
C55         C277   1.503       .  S
C56         C415   1.509       .  S
C57         C371   1.505       .  S
C58         C321   1.477       .  S
N69          C74   1.356       .  A
N69          C73   1.356       .  A
N69         H101   1.039       .  S
N70          C77   1.353       .  A
N70          C78   1.354       .  A
N71          C76   1.361       .  A
N71          C75   1.357       .  A
N71         H102   1.031       .  S
N72          C79   1.351       .  A
N72          C80   1.351       .  A
C73          C81   1.398       .  A
C73          C89   1.437       .  A
C74          C90   1.399       .  A
C74          C82   1.371       .  A
C75          C83   1.379       .  A
C75          C92   1.430       .  A
C76          C91   1.420       .  A
C76          C84   1.375       .  A
C77          C89   1.426       .  A
C77          C85   1.390       .  A
C78          C92   1.420       .  A
C78          C86   1.383       .  A
C79          C87   1.380       .  A
C79          C90   1.405       .  A
C80          C88   1.385       .  A
C80          C91   1.414       .  A
C81          C82   1.356       .  A
C81          H93   1.066       .  S
C82          H94   1.083       .  S
C83          C84   1.356       .  A
C83          H95   1.073       .  S
C84          H96   1.079       .  S
C85          C86   1.381       .  A
C85          H97   1.080       .  S
C86          H98   1.081       .  S
C87          C88   1.364       .  A
C87          H99   1.075       .  S
C88         H100   1.073       .  S
C89         C432   1.498       .  S
C90         C410   1.486       .  S
C91         C303   1.504       .  S
C92         C310   1.508       .  S
N103        C108   1.358       .  A
N103        C107   1.356       .  A
N103        H135   1.036       .  S
N104        C111   1.352       .  A
N104        C112   1.352       .  A
N105        C110   1.356       .  A
N105        C109   1.360       .  A
N105        H136   1.033       .  S
N106        C113   1.353       .  A
N106        C114   1.352       .  A
C107        C115   1.382       .  A
C107        C123   1.414       .  A
C108        C124   1.431       .  A
C108        C116   1.390       .  A
C109        C117   1.394       .  A
C109        C126   1.436       .  A
C110        C125   1.414       .  A
C110        C118   1.381       .  A
C111        C123   1.410       .  A
C111        C119   1.380       .  A
C112        C126   1.428       .  A
C112        C120   1.392       .  A
C113        C121   1.390       .  A
C113        C124   1.423       .  A
C114        C122   1.382       .  A
C114        C125   1.412       .  A
C115        C116   1.355       .  A
C115        H127   1.084       .  S
C116        H128   1.072       .  S
C117        C118   1.354       .  A
C117        H129   1.080       .  S
C118        H130   1.082       .  S
C119        C120   1.368       .  A
C119        H131   1.078       .  S
C120        H132   1.076       .  S
C121        C122   1.373       .  A
C121        H133   1.079       .  S
C122        H134   1.081       .  S
C123        C254   1.494       .  S
C124        C298   1.496       .  S
C125        C378   1.482       .  S
C126        C437   1.503       .  S
N137        C142   1.359       .  A
N137        C141   1.362       .  A
N137        H169   1.034       .  S
N138        C145   1.351       .  A
N138        C146   1.353       .  A
N139        C144   1.360       .  A
N139        C143   1.362       .  A
N139        H170   1.035       .  S
N140        C147   1.353       .  A
N140        C148   1.353       .  A
C141        C149   1.397       .  A
C141        C157   1.445       .  A
C142        C158   1.418       .  A
C142        C150   1.380       .  A
C143        C151   1.371       .  A
C143        C160   1.418       .  A
C144        C159   1.427       .  A
C144        C152   1.377       .  A
C145        C157   1.427       .  A
C145        C153   1.392       .  A
C146        C160   1.415       .  A
C146        C154   1.382       .  A
C147        C155   1.385       .  A
C147        C158   1.416       .  A
C148        C156   1.386       .  A
C148        C159   1.416       .  A
C149        C150   1.356       .  A
C149        H161   1.080       .  S
C150        H162   1.083       .  S
C151        C152   1.354       .  A
C151        H163   1.079       .  S
C152        H164   1.069       .  S
C153        C154   1.369       .  A
C153        H165   1.077       .  S
C154        H166   1.078       .  S
C155        C156   1.375       .  A
C155        H167   1.079       .  S
C156        H168   1.081       .  S
C157        C388   1.509       .  S
C158        C433   1.493       .  S
C159        C244   1.501       .  S
C160        C288   1.515       .  S
N171        C176   1.360       .  A
N171        C175   1.358       .  A
N171        H203   1.034       .  S
N172        C179   1.347       .  A
N172        C180   1.349       .  A
N173        C178   1.358       .  A
N173        C177   1.358       .  A
N173        H204   1.043       .  S
N174        C181   1.354       .  A
N174        C182   1.354       .  A
C175        C183   1.378       .  A
C175        C191   1.413       .  A
C176        C192   1.441       .  A
C176        C184   1.397       .  A
C177        C185   1.370       .  A
C177        C194   1.399       .  A
C178        C193   1.440       .  A
C178        C186   1.400       .  A
C179        C191   1.404       .  A
C179        C187   1.386       .  A
C180        C194   1.399       .  A
C180        C188   1.382       .  A
C181        C189   1.388       .  A
C181        C192   1.429       .  A
C182        C190   1.388       .  A
C182        C193   1.426       .  A
C183        C184   1.353       .  A
C183        H195   1.081       .  S
C184        H196   1.080       .  S
C185        C186   1.367       .  A
C185        H197   1.083       .  S
C186        H198   1.075       .  S
C187        C188   1.368       .  A
C187        H199   1.080       .  S
C188        H200   1.078       .  S
C189        C190   1.379       .  A
C189        H201   1.080       .  S
C190        H202   1.079       .  S
C191        C393   1.476       .  S
C192        C356   1.515       .  S
C193        C255   1.516       .  S
C194        C276   1.479       .  S
N205        C210   1.356       .  A
N205        C209   1.362       .  A
N205        H237   1.033       .  S
N206        C213   1.350       .  A
N206        C214   1.351       .  A
N207        C212   1.358       .  A
N207        C211   1.358       .  A
N207        H238   1.041       .  S
N208        C215   1.353       .  A
N208        C216   1.355       .  A
C209        C217   1.390       .  A
C209        C225   1.428       .  A
C210        C226   1.424       .  A
C210        C218   1.378       .  A
C211        C219   1.368       .  A
C211        C228   1.397       .  A
C212        C227   1.441       .  A
C212        C220   1.397       .  A
C213        C225   1.417       .  A
C213        C221   1.390       .  A
C214        C228   1.399       .  A
C214        C222   1.378       .  A
C215        C223   1.384       .  A
C215        C226   1.421       .  A
C216        C224   1.389       .  A
C216        C227   1.427       .  A
C217        C218   1.357       .  A
C217        H229   1.081       .  S
C218        H230   1.075       .  S
C219        C220   1.355       .  A
C219        H231   1.083       .  S
C220        H232   1.060       .  S
C221        C222   1.363       .  A
C221        H233   1.075       .  S
C222        H234   1.078       .  S
C223        C224   1.384       .  A
C223        H235   1.082       .  S
C224        H236   1.081       .  S
C225        C281   1.498       .  S
C226        C325   1.506       .  S
C227        C367   1.509       .  S
C228        C411   1.484       .  S
O239        C254   1.267       .  A
O239       Al247   1.947       .  S
C240        O250   1.261       .  A
C240        O241   1.259       .  A
C240        C327   1.526       .  S
O241       Al243   1.927       .  S
O242        C244   1.262       .  A
O242       Al243   1.889       .  S
Al243       O251   1.935       .  S
Al243       O253   1.834       .  S
Al243       O252   1.764       .  S
C244        O257   1.270       .  A
O245        C255   1.272       .  A
O245       Al247   1.982       .  S
O246        C259   1.259       .  A
O246       Al256   1.884       .  S
Al247       O260   1.916       .  S
Al247       O257   1.940       .  S
Al247       O252   1.803       .  S
O248        C255   1.251       .  A
O248       Al256   1.872       .  S
O249        C258   1.262       .  A
O249       Al256   1.936       .  S
O250       Al256   1.907       .  S
O251        C258   1.268       .  A
O252       Al256   1.762       .  S
O253        C254   1.258       .  A
C258        C346   1.496       .  S
C259        O260   1.263       .  A
O261        C276   1.264       .  A
O261       Al765   1.918   1_564  S
C262        O272   1.258   1_565  A
C262        O263   1.276       .  A
C262        C344   1.513       .  S
O263       Al761   1.980       .  S
O264        C266   1.255       .  A
O264       Al761   1.840       .  S
Al265       O273   1.892       .  S
Al265       O275   1.872       .  S
Al265       O759   1.980   1_554  S
Al265       O760   1.840   1_554  S
Al265       O770   1.783       .  S
C266        O279   1.264       .  A
O267        C277   1.265       .  A
O267       Al269   1.955       .  S
O268        C281   1.259       .  A
O268       Al278   1.838       .  S
Al269       O279   1.941   1_545  S
Al269       O757   1.918   1_545  S
Al269       O778   1.937       .  S
Al269       O274   1.800   1_545  S
O270        C277   1.247       .  A
O270       Al774   1.864       .  S
O271        C280   1.257   1_545  A
O271       Al278   1.937       .  S
O272       Al774   1.892       .  S
O273        C280   1.249       .  A
O274       Al761   1.783       .  S
O274       Al774   1.788   1_565  S
O275        C276   1.255       .  A
Al278       O766   1.864   1_554  S
Al278       O768   1.892   1_554  S
Al278       O770   1.788   1_545  S
C280        C332   1.501       .  S
C281        O282   1.272       .  A
O282       Al765   1.937   1_554  S
O283        C298   1.265       .  A
O283       Al291   1.926       .  S
C284        O294   1.258       .  A
C284        O285   1.261   1_545  A
C284        C329   1.511       .  S
O285       Al783   1.920       .  S
O286        C288   1.259       .  A
O286       Al783   1.857       .  S
Al287       O295   1.932       .  S
Al287       O297   1.872       .  S
Al287       O781   1.920       .  S
Al287       O782   1.857       .  S
Al287       O296   1.796       .  S
C288        O301   1.260       .  A
O289        C299   1.269       .  A
O289       Al787   1.949   1_544  S
O290        C303   1.255       .  A
O290       Al300   1.853       .  S
Al291       O304   1.912   1_565  S
Al291       O785   1.949   1_565  S
Al291       O797   1.934       .  S
Al291       O296   1.821       .  S
O292        C299   1.260       .  A
O292       Al796   1.870   1_554  S
O293        C302   1.261   1_545  A
O293       Al300   1.920       .  S
O294       Al796   1.932   1_554  S
O295        C302   1.259       .  A
O296       Al300   1.797   1_565  S
O297        C298   1.257       .  A
C299        C483   1.505       .  S
Al300       O788   1.870       .  S
Al300       O790   1.932       .  S
O301       Al787   1.934   1_554  S
C302        C341   1.510       .  S
C303        O304   1.257       .  A
O305        C320   1.263       .  A
O305       Al313   1.917       .  S
C306        O316   1.264       .  A
C306        O307   1.261       .  A
C306        C339   1.548       .  S
O307       Al309   1.940       .  S
O308        C310   1.255       .  A
O308       Al309   1.858       .  S
Al309       O317   1.912       .  S
Al309       O319   1.837       .  S
Al309       O318   1.782       .  S
C310        O323   1.266       .  A
O311        C321   1.266       .  A
O311       Al313   1.921       .  S
O312        C325   1.260       .  A
O312       Al322   1.891       .  S
Al313       O326   1.944       .  S
Al313       O323   1.956       .  S
Al313       O318   1.817       .  S
O314        C321   1.258       .  A
O314       Al322   1.855       .  S
O315        C324   1.261       .  A
O315       Al322   1.937       .  S
O316       Al322   1.946       .  S
O317        C324   1.264       .  A
O318       Al322   1.790       .  S
O319        C320   1.255       .  A
C320        C484   1.496       .  S
C324        C334   1.495       .  S
C325        O326   1.262       .  A
C327        C328   1.539       .  S
C327        C333   1.490   1_565  S
C327        C331   1.540       .  S
C328        H335   1.065       .  S
C328        C329   1.380   1_565  D
C329        C330   1.553       .  S
C330        C334   1.584       .  S
C330        C332   1.558   1_545  S
C330        H336   1.110       .  S
C331        H337   1.086       .  S
C331        C332   1.384       .  D
C333        H338   1.078       .  S
C333        C334   1.334       .  D
C339        C340   1.544       .  S
C339        C345   1.495   1_545  S
C339        C343   1.548       .  S
C340        H347   1.073       .  S
C340        C341   1.383   1_545  D
C341        C342   1.554       .  S
C342        C346   1.581       .  S
C342        C344   1.551       .  S
C342        H348   1.111       .  S
C343        H349   1.082       .  S
C343        C344   1.391   1_545  D
C345        H350   1.077       .  S
C345        C346   1.339       .  D
O351        C366   1.266       .  A
O351       Al359   1.924       .  S
C352        O362   1.260       .  A
C352        O353   1.267       .  A
C352        C444   1.517       .  S
O353       Al355   1.959       .  S
O354        C356   1.252       .  A
O354       Al355   1.829       .  S
Al355       O363   1.925       .  S
Al355       O365   1.871       .  S
Al355       O364   1.780       .  S
C356        O369   1.265       .  A
O357        C367   1.269       .  A
O357       Al359   1.962       .  S
O358        C371   1.261       .  A
O358       Al368   1.859       .  S
Al359       O372   1.948       .  S
Al359       O369   1.954       .  S
Al359       O364   1.808       .  S
O360        C367   1.252       .  A
O360       Al368   1.881       .  S
O361        C370   1.263       .  A
O361       Al368   1.937       .  S
O362       Al368   1.923       .  S
O363        C370   1.257       .  A
O364       Al368   1.770       .  S
O365        C366   1.259       .  A
C370        C453   1.507       .  S
C371        O372   1.272       .  A
O373        C388   1.271       .  A
O373       Al877   1.950   1_554  S
C374        O384   1.274       .  A
C374        O375   1.258   1_655  A
C374        C458   1.506       .  S
O375       Al377   1.934       .  S
O376        C378   1.251       .  A
O376       Al377   1.850       .  S
Al377       O881   1.936       .  S
Al377       O883   1.824       .  S
Al377       O386   1.779       .  S
C378        O391   1.258       .  A
O379        C389   1.273       .  A
O379       Al381   1.964   1_655  S
O380        C393   1.252       .  A
O380       Al886   1.858   1_554  S
Al381       O391   1.920       .  S
Al381       O869   1.950       .  S
Al381       O890   1.903   1_455  S
Al381       O386   1.808       .  S
O382        C389   1.260       .  A
O382       Al390   1.840       .  S
O383        C392   1.257   1_655  A
O383       Al886   1.942   1_554  S
O384       Al390   1.961       .  S
O385        C392   1.268       .  A
O385       Al873   1.936   1_554  S
O386       Al390   1.780   1_455  S
O387        C388   1.253       .  A
O387       Al873   1.824   1_554  S
Al390       O876   1.858       .  S
Al390       O879   1.942       .  S
C392        C446   1.501       .  S
C393        O394   1.255       .  A
O394       Al877   1.903   1_654  S
O395        C410   1.263       .  A
O395       Al403   1.919   1_455  S
C396        O406   1.260   1_455  A
C396        O397   1.263       .  A
C396        C439   1.535       .  S
O397       Al895   1.940   1_554  S
O398        C400   1.260       .  A
O398       Al895   1.889   1_554  S
Al399       O407   1.920       .  S
Al399       O409   1.864       .  S
Al399       O893   1.940       .  S
Al399       O894   1.889       .  S
Al399       O408   1.788   1_455  S
C400        C486   1.516       .  S
C400        O413   1.269       .  A
O401        C411   1.263       .  A
O401       Al899   1.922   1_554  S
O402        C415   1.259       .  A
O402       Al412   1.878       .  S
Al403       O416   1.961       .  S
Al403       O897   1.922       .  S
Al403       O909   1.962   1_655  S
Al403       O408   1.817       .  S
O404        C411   1.256       .  A
O404       Al908   1.860   1_554  S
O405        C414   1.262       .  A
O405       Al412   1.938       .  S
O406       Al908   1.911   1_554  S
O407        C414   1.261   1_455  A
O408       Al412   1.786       .  S
O409        C410   1.258       .  A
Al412       O900   1.860       .  S
Al412       O902   1.911       .  S
O413       Al899   1.962   1_454  S
C414        C451   1.538       .  S
C415        O416   1.269       .  A
O417        C432   1.261       .  A
O417       Al425   1.941       .  S
C418        O428   1.253       .  A
C418        O419   1.260       .  A
C418        C441   1.506       .  S
O419       Al421   1.930       .  S
O420        C422   1.267       .  A
O420       Al421   1.874       .  S
Al421       O429   1.930       .  S
Al421       O431   1.873       .  S
Al421       O430   1.779       .  S
C422        C485   1.518       .  S
C422        O435   1.269       .  A
O423        C433   1.265       .  A
O423       Al425   1.926       .  S
O424        C437   1.251       .  A
O424       Al434   1.832       .  S
Al425       O438   1.914       .  S
Al425       O435   1.943       .  S
Al425       O430   1.807       .  S
O426        C433   1.260       .  A
O426       Al434   1.867       .  S
O427        C436   1.272       .  A
O427       Al434   1.972       .  S
O428       Al434   1.923       .  S
O429        C436   1.266       .  A
O430       Al434   1.792       .  S
O431        C432   1.248       .  A
C436        C456   1.524       .  S
C437        O438   1.258       .  A
C439        C440   1.543       .  S
C439        C445   1.495       .  S
C439        C443   1.549   1_455  S
C440        H447   1.071       .  S
C440        C441   1.381       .  D
C441        C442   1.556   1_455  S
C442        C446   1.585   1_655  S
C442        C444   1.557       .  S
C442        H448   1.110       .  S
C443        H449   1.083       .  S
C443        C444   1.386       .  D
C445        H450   1.081       .  S
C445        C446   1.337       .  D
C451        C452   1.544       .  S
C451        C457   1.499       .  S
C451        C455   1.548   1_655  S
C452        H459   1.071       .  S
C452        C453   1.382       .  D
C453        C454   1.554   1_655  S
C454        C458   1.586   1_455  S
C454        C456   1.563       .  S
C454        H460   1.110       .  S
C455        H461   1.084       .  S
C455        C456   1.386       .  D
C457        H462   1.081       .  S
C457        C458   1.338       .  D
N463        C468   1.358       .  A
N463        C467   1.358       .  A
N463        H495   1.028       .  S
N464        C471   1.355       .  A
N464        C472   1.354       .  A
N465        C470   1.365       .  A
N465        C469   1.360       .  A
N465        H496   1.035       .  S
N466        C473   1.354       .  A
N466        C474   1.357       .  A
C467        C475   1.384       .  A
C467        C483   1.429       .  A
C468        C484   1.428       .  A
C468        C476   1.389       .  A
C469        C477   1.374       .  A
C469        C486   1.434       .  A
C470        C485   1.420       .  A
C470        C478   1.373       .  A
C471        C483   1.425       .  A
C471        C479   1.385       .  A
C472        C486   1.422       .  A
C472        C480   1.384       .  A
C473        C481   1.388       .  A
C473        C484   1.424       .  A
C474        C482   1.384       .  A
C474        C485   1.419       .  A
C475        C476   1.357       .  A
C475        H487   1.077       .  S
C476        H488   1.082       .  S
C477        C478   1.356       .  A
C477        H489   1.065       .  S
C478        H490   1.080       .  S
C479        C480   1.381       .  A
C479        H491   1.081       .  S
C480        H492   1.081       .  S
C481        C482   1.360       .  A
C481        H493   1.075       .  S
C482        H494   1.073       .  S
N497        C502   1.358       .  A
N497        C501   1.355       .  A
N497        H529   1.029       .  S
N498        C505   1.352       .  A
N498        C506   1.354       .  A
N499        C504   1.359       .  A
N499        C503   1.357       .  A
N499        H530   1.032       .  S
N500        C507   1.357       .  A
N500        C508   1.356       .  A
C501        C509   1.382       .  A
C501        C517   1.421       .  A
C502        C518   1.432       .  A
C502        C510   1.392       .  A
C503        C511   1.382       .  A
C503        C520   1.419       .  A
C504        C519   1.436       .  A
C504        C512   1.392       .  A
C505        C517   1.414       .  A
C505        C513   1.388       .  A
C506        C520   1.414       .  A
C506        C514   1.386       .  A
C507        C515   1.387       .  A
C507        C518   1.430       .  A
C508        C516   1.385       .  A
C508        C519   1.428       .  A
C509        C510   1.360       .  A
C509        H521   1.078       .  S
C510        H522   1.081       .  S
C511        C512   1.358       .  A
C511        H523   1.079       .  S
C512        H524   1.081       .  S
C513        C514   1.370       .  A
C513        H525   1.081       .  S
C514        H526   1.081       .  S
C515        C516   1.375       .  A
C515        H527   1.078       .  S
C516        H528   1.079       .  S
C517        C755   1.480       .  S
C518        C762   1.509       .  S
C519        C885   1.513       .  S
C520        C862   1.487       .  S
N531        C536   1.353       .  A
N531        C535   1.356       .  A
N531        H563   1.037       .  S
N532        C539   1.355       .  A
N532        C540   1.355       .  A
N533        C538   1.350       .  A
N533        C537   1.350       .  A
N533        H564   1.044       .  S
N534        C541   1.358       .  A
N534        C542   1.362       .  A
C535        C543   1.391       .  A
C535        C551   1.428       .  A
C536        C552   1.418       .  A
C536        C544   1.383       .  A
C537        C545   1.384       .  A
C537        C554   1.403       .  A
C538        C553   1.406       .  A
C538        C546   1.384       .  A
C539        C551   1.438       .  A
C539        C547   1.395       .  A
C540        C554   1.400       .  A
C540        C548   1.374       .  A
C541        C549   1.374       .  A
C541        C552   1.428       .  A
C542        C550   1.371       .  A
C542        C553   1.416       .  A
C543        C544   1.387       .  A
C543        H555   1.080       .  S
C544        H556   1.082       .  S
C545        C546   1.368       .  A
C545        H557   1.077       .  S
C546        H558   1.075       .  S
C547        C548   1.359       .  A
C547        H559   1.067       .  S
C548        H560   1.083       .  S
C549        C550   1.357       .  A
C549        H561   1.070       .  S
C550        H562   1.079       .  S
C551        C773   1.503       .  S
C552        C911   1.509       .  S
C553        C867   1.505       .  S
C554        C817   1.477       .  S
N565        C570   1.356       .  A
N565        C569   1.356       .  A
N565        H597   1.039       .  S
N566        C573   1.353       .  A
N566        C574   1.354       .  A
N567        C572   1.361       .  A
N567        C571   1.357       .  A
N567        H598   1.031       .  S
N568        C575   1.351       .  A
N568        C576   1.351       .  A
C569        C577   1.398       .  A
C569        C585   1.437       .  A
C570        C586   1.399       .  A
C570        C578   1.371       .  A
C571        C579   1.379       .  A
C571        C588   1.430       .  A
C572        C587   1.420       .  A
C572        C580   1.375       .  A
C573        C585   1.426       .  A
C573        C581   1.390       .  A
C574        C588   1.420       .  A
C574        C582   1.383       .  A
C575        C583   1.380       .  A
C575        C586   1.405       .  A
C576        C584   1.385       .  A
C576        C587   1.414       .  A
C577        C578   1.357       .  A
C577        H589   1.066       .  S
C578        H590   1.083       .  S
C579        C580   1.356       .  A
C579        H591   1.073       .  S
C580        H592   1.079       .  S
C581        C582   1.381       .  A
C581        H593   1.080       .  S
C582        H594   1.081       .  S
C583        C584   1.364       .  A
C583        H595   1.075       .  S
C584        H596   1.073       .  S
C585        C928   1.498       .  S
C586        C906   1.486       .  S
C587        C799   1.504       .  S
C588        C806   1.508       .  S
N599        C604   1.358       .  A
N599        C603   1.356       .  A
N599        H631   1.036       .  S
N600        C607   1.352       .  A
N600        C608   1.352       .  A
N601        C606   1.356       .  A
N601        C605   1.360       .  A
N601        H632   1.033       .  S
N602        C609   1.353       .  A
N602        C610   1.352       .  A
C603        C611   1.382       .  A
C603        C619   1.414       .  A
C604        C620   1.431       .  A
C604        C612   1.390       .  A
C605        C613   1.394       .  A
C605        C622   1.436       .  A
C606        C621   1.414       .  A
C606        C614   1.381       .  A
C607        C619   1.410       .  A
C607        C615   1.380       .  A
C608        C622   1.428       .  A
C608        C616   1.392       .  A
C609        C617   1.390       .  A
C609        C620   1.423       .  A
C610        C618   1.382       .  A
C610        C621   1.412       .  A
C611        C612   1.355       .  A
C611        H623   1.084       .  S
C612        H624   1.072       .  S
C613        C614   1.354       .  A
C613        H625   1.080       .  S
C614        H626   1.082       .  S
C615        C616   1.368       .  A
C615        H627   1.078       .  S
C616        H628   1.076       .  S
C617        C618   1.373       .  A
C617        H629   1.079       .  S
C618        H630   1.081       .  S
C619        C750   1.494       .  S
C620        C794   1.496       .  S
C621        C874   1.482       .  S
C622        C933   1.503       .  S
N633        C638   1.359       .  A
N633        C637   1.362       .  A
N633        H665   1.034       .  S
N634        C641   1.351       .  A
N634        C642   1.353       .  A
N635        C640   1.360       .  A
N635        C639   1.362       .  A
N635        H666   1.035       .  S
N636        C643   1.353       .  A
N636        C644   1.353       .  A
C637        C645   1.397       .  A
C637        C653   1.445       .  A
C638        C654   1.418       .  A
C638        C646   1.380       .  A
C639        C647   1.371       .  A
C639        C656   1.418       .  A
C640        C655   1.427       .  A
C640        C648   1.377       .  A
C641        C653   1.427       .  A
C641        C649   1.392       .  A
C642        C656   1.415       .  A
C642        C650   1.382       .  A
C643        C651   1.385       .  A
C643        C654   1.416       .  A
C644        C652   1.386       .  A
C644        C655   1.416       .  A
C645        C646   1.356       .  A
C645        H657   1.080       .  S
C646        H658   1.083       .  S
C647        C648   1.354       .  A
C647        H659   1.079       .  S
C648        H660   1.069       .  S
C649        C650   1.369       .  A
C649        H661   1.077       .  S
C650        H662   1.078       .  S
C651        C652   1.375       .  A
C651        H663   1.079       .  S
C652        H664   1.081       .  S
C653        C884   1.509       .  S
C654        C929   1.493       .  S
C655        C740   1.501       .  S
C656        C784   1.515       .  S
N667        C672   1.360       .  A
N667        C671   1.358       .  A
N667        H699   1.034       .  S
N668        C675   1.347       .  A
N668        C676   1.349       .  A
N669        C674   1.358       .  A
N669        C673   1.358       .  A
N669        H700   1.043       .  S
N670        C677   1.354       .  A
N670        C678   1.354       .  A
C671        C679   1.378       .  A
C671        C687   1.413       .  A
C672        C688   1.441       .  A
C672        C680   1.397       .  A
C673        C681   1.370       .  A
C673        C690   1.399       .  A
C674        C689   1.440       .  A
C674        C682   1.400       .  A
C675        C687   1.404       .  A
C675        C683   1.386       .  A
C676        C690   1.399       .  A
C676        C684   1.382       .  A
C677        C685   1.388       .  A
C677        C688   1.429       .  A
C678        C686   1.388       .  A
C678        C689   1.426       .  A
C679        C680   1.353       .  A
C679        H691   1.081       .  S
C680        H692   1.080       .  S
C681        C682   1.367       .  A
C681        H693   1.083       .  S
C682        H694   1.075       .  S
C683        C684   1.368       .  A
C683        H695   1.080       .  S
C684        H696   1.078       .  S
C685        C686   1.379       .  A
C685        H697   1.080       .  S
C686        H698   1.079       .  S
C687        C889   1.476       .  S
C688        C852   1.515       .  S
C689        C751   1.516       .  S
C690        C772   1.479       .  S
N701        C706   1.356       .  A
N701        C705   1.362       .  A
N701        H733   1.033       .  S
N702        C709   1.350       .  A
N702        C710   1.351       .  A
N703        C708   1.358       .  A
N703        C707   1.358       .  A
N703        H734   1.041       .  S
N704        C711   1.353       .  A
N704        C712   1.355       .  A
C705        C713   1.390       .  A
C705        C721   1.428       .  A
C706        C722   1.424       .  A
C706        C714   1.378       .  A
C707        C715   1.368       .  A
C707        C724   1.397       .  A
C708        C723   1.441       .  A
C708        C716   1.397       .  A
C709        C721   1.417       .  A
C709        C717   1.390       .  A
C710        C724   1.399       .  A
C710        C718   1.378       .  A
C711        C719   1.384       .  A
C711        C722   1.421       .  A
C712        C720   1.389       .  A
C712        C723   1.427       .  A
C713        C714   1.357       .  A
C713        H725   1.081       .  S
C714        H726   1.075       .  S
C715        C716   1.355       .  A
C715        H727   1.083       .  S
C716        H728   1.060       .  S
C717        C718   1.363       .  A
C717        H729   1.075       .  S
C718        H730   1.078       .  S
C719        C720   1.384       .  A
C719        H731   1.082       .  S
C720        H732   1.081       .  S
C721        C777   1.498       .  S
C722        C821   1.506       .  S
C723        C863   1.509       .  S
C724        C907   1.484       .  S
O735        C750   1.267       .  A
O735       Al743   1.947       .  S
C736        O746   1.261       .  A
C736        O737   1.259       .  A
C736        C823   1.526       .  S
O737       Al739   1.927       .  S
O738        C740   1.262       .  A
O738       Al739   1.889       .  S
Al739       O747   1.935       .  S
Al739       O749   1.834       .  S
Al739       O748   1.764       .  S
C740        O753   1.270       .  A
O741        C751   1.272       .  A
O741       Al743   1.982       .  S
O742        C755   1.259       .  A
O742       Al752   1.884       .  S
Al743       O756   1.916       .  S
Al743       O753   1.940       .  S
Al743       O748   1.803       .  S
O744        C751   1.251       .  A
O744       Al752   1.871       .  S
O745        C754   1.262       .  A
O745       Al752   1.936       .  S
O746       Al752   1.907       .  S
O747        C754   1.268       .  A
O748       Al752   1.762       .  S
O749        C750   1.258       .  A
C754        C842   1.496       .  S
C755        O756   1.263       .  A
O757        C772   1.264       .  A
C758        O768   1.258   1_565  A
C758        O759   1.276       .  A
C758        C840   1.513       .  S
O760        C762   1.255       .  A
Al761       O769   1.892       .  S
Al761       O771   1.872       .  S
C762        O775   1.265       .  A
O763        C773   1.265       .  A
O763       Al765   1.955       .  S
O764        C777   1.259       .  A
O764       Al774   1.838       .  S
Al765       O775   1.941   1_545  S
Al765       O770   1.800   1_546  S
O766        C773   1.247       .  A
O767        C776   1.257   1_545  A
O767       Al774   1.937       .  S
O769        C776   1.249       .  A
O771        C772   1.255       .  A
C776        C828   1.501       .  S
C777        O778   1.272       .  A
O779        C794   1.265       .  A
O779       Al787   1.926       .  S
C780        O790   1.258       .  A
C780        O781   1.261   1_545  A
C780        C825   1.511       .  S
O782        C784   1.259       .  A
Al783       O791   1.932   1_554  S
Al783       O793   1.872   1_554  S
Al783       O792   1.796       .  S
C784        O797   1.260       .  A
O785        C795   1.269       .  A
O786        C799   1.255       .  A
O786       Al796   1.853       .  S
Al787       O800   1.912   1_565  S
Al787       O792   1.821   1_556  S
O788        C795   1.260       .  A
O789        C798   1.261   1_545  A
O789       Al796   1.920       .  S
O791        C798   1.259       .  A
O792       Al796   1.797   1_564  S
O793        C794   1.257       .  A
C795        C979   1.505       .  S
C798        C837   1.510       .  S
C799        O800   1.257       .  A
O801        C816   1.263       .  A
O801       Al809   1.917       .  S
C802        O812   1.264       .  A
C802        O803   1.261       .  A
C802        C835   1.548       .  S
O803       Al805   1.940       .  S
O804        C806   1.255       .  A
O804       Al805   1.858       .  S
Al805       O813   1.912       .  S
Al805       O815   1.837       .  S
Al805       O814   1.782       .  S
C806        O819   1.266       .  A
O807        C817   1.266       .  A
O807       Al809   1.921       .  S
O808        C821   1.260       .  A
O808       Al818   1.891       .  S
Al809       O822   1.944       .  S
Al809       O819   1.956       .  S
Al809       O814   1.817       .  S
O810        C817   1.258       .  A
O810       Al818   1.855       .  S
O811        C820   1.261       .  A
O811       Al818   1.937       .  S
O812       Al818   1.946       .  S
O813        C820   1.264       .  A
O814       Al818   1.790       .  S
O815        C816   1.255       .  A
C816        C980   1.496       .  S
C820        C830   1.495       .  S
C821        O822   1.262       .  A
C823        C824   1.539       .  S
C823        C829   1.490   1_565  S
C823        C827   1.540       .  S
C824        H831   1.065       .  S
C824        C825   1.380   1_565  D
C825        C826   1.553       .  S
C826        C830   1.584       .  S
C826        C828   1.558   1_545  S
C826        H832   1.110       .  S
C827        H833   1.086       .  S
C827        C828   1.384       .  D
C829        H834   1.078       .  S
C829        C830   1.334       .  D
C835        C836   1.544       .  S
C835        C841   1.495   1_545  S
C835        C839   1.548       .  S
C836        H843   1.073       .  S
C836        C837   1.383   1_545  D
C837        C838   1.554       .  S
C838        C842   1.581       .  S
C838        C840   1.551       .  S
C838        H844   1.111       .  S
C839        H845   1.082       .  S
C839        C840   1.391   1_545  D
C841        H846   1.077       .  S
C841        C842   1.339       .  D
O847        C862   1.266       .  A
O847       Al855   1.924       .  S
C848        O858   1.260       .  A
C848        O849   1.267       .  A
C848        C940   1.517       .  S
O849       Al851   1.959       .  S
O850        C852   1.252       .  A
O850       Al851   1.829       .  S
Al851       O859   1.925       .  S
Al851       O861   1.871       .  S
Al851       O860   1.780       .  S
C852        O865   1.265       .  A
O853        C863   1.269       .  A
O853       Al855   1.962       .  S
O854        C867   1.261       .  A
O854       Al864   1.859       .  S
Al855       O868   1.948       .  S
Al855       O865   1.954       .  S
Al855       O860   1.808       .  S
O856        C863   1.252       .  A
O856       Al864   1.881       .  S
O857        C866   1.263       .  A
O857       Al864   1.937       .  S
O858       Al864   1.923       .  S
O859        C866   1.257       .  A
O860       Al864   1.770       .  S
O861        C862   1.259       .  A
C866        C949   1.507       .  S
C867        O868   1.272       .  A
O869        C884   1.271       .  A
C870        O880   1.274       .  A
C870        O871   1.258   1_655  A
C870        C954   1.506       .  S
O871       Al873   1.934       .  S
O872        C874   1.251       .  A
O872       Al873   1.850       .  S
Al873       O882   1.779       .  S
C874        O887   1.258       .  A
O875        C885   1.273       .  A
O875       Al877   1.964   1_655  S
O876        C889   1.252       .  A
Al877       O887   1.920       .  S
Al877       O882   1.808       .  S
O878        C885   1.260       .  A
O878       Al886   1.840       .  S
O879        C888   1.257   1_655  A
O880       Al886   1.961       .  S
O881        C888   1.268       .  A
O882       Al886   1.780   1_455  S
O883        C884   1.253       .  A
C888        C942   1.501       .  S
C889        O890   1.255       .  A
O891        C906   1.263       .  A
O891       Al899   1.919   1_455  S
C892        O902   1.260   1_455  A
C892        O893   1.263       .  A
C892        C935   1.535       .  S
O894        C896   1.260       .  A
Al895       O903   1.920       .  S
Al895       O905   1.864       .  S
Al895       O904   1.788   1_455  S
C896        C982   1.516       .  S
C896        O909   1.269       .  A
O897        C907   1.263       .  A
O898        C911   1.259       .  A
O898       Al908   1.878       .  S
Al899       O912   1.961       .  S
Al899       O904   1.817       .  S
O900        C907   1.256       .  A
O901        C910   1.262       .  A
O901       Al908   1.938       .  S
O903        C910   1.261   1_455  A
O904       Al908   1.786       .  S
O905        C906   1.258       .  A
C910        C947   1.538       .  S
C911        O912   1.269       .  A
O913        C928   1.261       .  A
O913       Al921   1.941       .  S
C914        O924   1.253       .  A
C914        O915   1.260       .  A
C914        C937   1.506       .  S
O915       Al917   1.930       .  S
O916        C918   1.267       .  A
O916       Al917   1.874       .  S
Al917       O925   1.930       .  S
Al917       O927   1.873       .  S
Al917       O926   1.779       .  S
C918        C981   1.518       .  S
C918        O931   1.269       .  A
O919        C929   1.265       .  A
O919       Al921   1.926       .  S
O920        C933   1.251       .  A
O920       Al930   1.832       .  S
Al921       O934   1.914       .  S
Al921       O931   1.943       .  S
Al921       O926   1.807       .  S
O922        C929   1.260       .  A
O922       Al930   1.867       .  S
O923        C932   1.272       .  A
O923       Al930   1.972       .  S
O924       Al930   1.923       .  S
O925        C932   1.266       .  A
O926       Al930   1.792       .  S
O927        C928   1.248       .  A
C932        C952   1.524       .  S
C933        O934   1.258       .  A
C935        C936   1.543       .  S
C935        C941   1.495       .  S
C935        C939   1.549   1_455  S
C936        H943   1.071       .  S
C936        C937   1.381       .  D
C937        C938   1.556   1_455  S
C938        C942   1.585   1_655  S
C938        C940   1.557       .  S
C938        H944   1.110       .  S
C939        H945   1.083       .  S
C939        C940   1.386       .  D
C941        H946   1.081       .  S
C941        C942   1.337       .  D
C947        C948   1.544       .  S
C947        C953   1.499       .  S
C947        C951   1.548   1_655  S
C948        H955   1.071       .  S
C948        C949   1.382       .  D
C949        C950   1.554   1_655  S
C950        C954   1.586   1_455  S
C950        C952   1.563       .  S
C950        H956   1.110       .  S
C951        H957   1.084       .  S
C951        C952   1.386       .  D
C953        H958   1.081       .  S
C953        C954   1.338       .  D
N959        C964   1.358       .  A
N959        C963   1.358       .  A
N959        H991   1.028       .  S
N960        C967   1.355       .  A
N960        C968   1.354       .  A
N961        C966   1.365       .  A
N961        C965   1.360       .  A
N961        H992   1.035       .  S
N962        C969   1.354       .  A
N962        C970   1.357       .  A
C963        C971   1.384       .  A
C963        C979   1.429       .  A
C964        C980   1.428       .  A
C964        C972   1.389       .  A
C965        C973   1.374       .  A
C965        C982   1.434       .  A
C966        C981   1.420       .  A
C966        C974   1.373       .  A
C967        C979   1.425       .  A
C967        C975   1.385       .  A
C968        C982   1.422       .  A
C968        C976   1.384       .  A
C969        C977   1.388       .  A
C969        C980   1.424       .  A
C970        C978   1.384       .  A
C970        C981   1.420       .  A
C971        C972   1.357       .  A
C971        H983   1.077       .  S
C972        H984   1.082       .  S
C973        C974   1.356       .  A
C973        H985   1.065       .  S
C974        H986   1.080       .  S
C975        C976   1.381       .  A
C975        H987   1.081       .  S
C976        H988   1.081       .  S
C977        C978   1.360       .  A
C977        H989   1.075       .  S
C978        H990   1.073       .  S
