geometry optimzed in LAMMPS
_audit_creation_date              2020-11-30 
_audit_creation_method            'lammps2cif' 
_symmetry_space_group_name_H-M    'P1' 
_symmetry_Int_Tables_number       1 
_symmetry_cell_setting            triclinic 
loop_ 
_symmetry_equiv_pos_as_xyz 
  x,y,z 
_cell_length_a                    38.1029654912785 
_cell_length_b                    38.192909017334834 
_cell_length_c                    41.98118538483366 
_cell_angle_alpha                 88.5919850360096 
_cell_angle_beta                  91.27149063358577 
_cell_angle_gamma                 119.63774351096797 
loop_ 
_atom_site_label 
_atom_site_type_symbol 
_atom_site_fract_x 
_atom_site_fract_y 
_atom_site_fract_z 
_atom_site_charge 
O1          O  0.93761350  0.22857766  0.68307514    -0.79990
O2          O  0.75726435  0.17223439  0.70218517    -0.64680
O3          O  0.85787648  0.17417836  0.70032255    -1.11280
C4          C  0.82389355  0.15276470  0.58981592     1.06900
O5          O  0.73007671  0.11397907  0.67734453    -0.77890
O6          O  0.76983958  0.08316497  0.64512341    -0.65470
Ni7        Ni  0.90499862  0.21549846  0.72078120     1.34870
C8          C  0.80138944  0.08071775  0.65102222     0.85630
O9          O  0.81218465  0.18394950  0.74762165    -0.78430
O10         O  0.87727180  0.20620999  0.76073141    -0.88700
C11         C  0.72653942  0.13908282  0.69450073     0.85210
O12         O  0.89653810  0.26001067  0.71144726    -0.66910
O13         O  0.78725039  0.13876620  0.59824247    -0.86190
C14         C  0.86707998  0.26417520  0.70143092     0.86040
C15         C  0.84113300  0.19633149  0.76790748     1.07600
H16         H  0.81144101  0.19379145  0.64715664     0.39410
O17         O  0.80753685  0.16923926  0.65746560    -1.08850
O18         O  0.83542583  0.11143883  0.65766473    -0.65500
Ni19       Ni  0.85702014  0.16950023  0.65480579     1.26350
O20         O  0.83250222  0.23384886  0.69544554    -0.65730
O21         O  0.85405532  0.16591784  0.60912106    -0.78020
C22         C  0.93972840  0.20454700  0.66374335     0.85420
O23         O  0.90852947  0.17321647  0.65415166    -0.65200
Ni24       Ni  0.76027732  0.12745867  0.63843066     1.27450
Ni25       Ni  0.80896319  0.17598629  0.70236513     1.26060
H26         H  0.85295738  0.14892659  0.70990540     0.39960
C27         C  0.81524938  0.25333252  0.94558686     0.04030
C28         C  0.77793545  0.22399924  0.95858656    -0.12120
C29         C  0.75119275  0.18939213  0.94097703     0.01530
C30         C  0.76285005  0.18520832  0.91014223    -0.10650
C31         C  0.80051877  0.21325359  0.89764355     0.04020
C32         C  0.82631356  0.24715967  0.91545808    -0.10070
H33         H  0.77016544  0.22802530  0.98233722     0.09620
H34         H  0.74241036  0.15993650  0.89561879     0.07140
H35         H  0.85495782  0.26945099  0.90545901     0.06990
C36         C  0.82803332  0.10885100  0.40544973     0.04030
C37         C  0.81948233  0.11745885  0.43548324    -0.12120
C38         C  0.85052297  0.14648332  0.45462103     0.01530
C39         C  0.88899460  0.17037304  0.44110602    -0.10650
C40         C  0.89594034  0.16486907  0.40933638     0.04020
C41         C  0.86547445  0.13370631  0.39179810    -0.10070
H42         H  0.78955490  0.09865011  0.44502161     0.09620
H43         H  0.91385828  0.19233522  0.45535361     0.07140
H44         H  0.87172115  0.12714131  0.36827640     0.06990
O45         O  0.04673329  0.45261940  0.99828603    -0.79990
O46         O  0.91824215  0.50367004  0.97609769    -0.64680
O47         O  0.01866139  0.50506360  0.97941204    -1.11280
C48         C  0.00748183  0.52445232  0.09031259     1.06900
O49         O  0.94804270  0.56088481  0.00220922    -0.77890
O50         O  0.01776984  0.59225500  0.03759227    -0.65470
Ni51       Ni  0.02614087  0.46501682  0.95966243     1.34870
C52         C  0.05208475  0.59814274  0.02907543     0.85630
O53         O  0.96251430  0.49512030  0.93069903    -0.78430
O54         O  0.00676678  0.47440633  0.91914723    -0.88700
C55         C  0.91902273  0.53566529  0.98492875     0.85210
O56         O  0.97430058  0.41920966  0.96773674    -0.66910
O57         O  0.98046557  0.53357452  0.08213940    -0.86190
C58         C  0.94039322  0.41396759  0.97676313     0.86040
C59         C  0.98010563  0.48403418  0.91092297     1.07600
H60         H  0.95428703  0.48200044  0.03139753     0.39410
O61         O  0.97335991  0.50740128  0.02164993    -1.08850
O62         O  0.05694716  0.56895976  0.02045355    -0.65500
Ni63       Ni  0.02425502  0.51054869  0.02488176     1.26350
O64         O  0.93488282  0.44360496  0.98227819    -0.65730
O65         O  0.02724246  0.51597447  0.07055881    -0.78020
C66         C  0.07355052  0.47712531  0.01749529     0.85420
O67         O  0.07341045  0.50872205  0.02615922    -0.65200
Ni68       Ni  0.96487501  0.54639753  0.04156504     1.27450
Ni69       Ni  0.96727586  0.50170294  0.97644127     1.26060
H70         H  0.03786527  0.53044599  0.96971741     0.39960
C71         C  0.89863950  0.42374895  0.73098219     0.04030
C72         C  0.91939199  0.43181469  0.76043196    -0.12120
C73         C  0.92901771  0.46676318  0.77723721     0.01530
C74         C  0.91882237  0.49451523  0.76387330    -0.10650
C75         C  0.89582647  0.48619371  0.73540546     0.04020
C76         C  0.88622932  0.45075524  0.71880622    -0.10070
H77         H  0.92687314  0.41004469  0.77086874     0.09620
H78         H  0.92623749  0.52143541  0.77701616     0.07140
H79         H  0.86848759  0.44373219  0.69699714     0.06990
C80         C  0.07847918  0.57312719  0.27123720     0.04030
C81         C  0.08829787  0.54462071  0.28414827    -0.12120
C82         C  0.07785319  0.50901999  0.26766779     0.01530
C83         C  0.05556077  0.50157772  0.23891833    -0.10650
C84         C  0.04874352  0.53120472  0.22474546     0.04020
C85         C  0.05962814  0.56648079  0.24121387    -0.10070
H86         H  0.10536344  0.55098031  0.30625093     0.09620
H87         H  0.04687972  0.47424236  0.22594544     0.07140
H88         H  0.05497804  0.58972914  0.22990855     0.06990
O89         O  0.44857503  0.05786561  0.01855331    -0.79990
O90         O  0.49942045  0.92655502  0.03082899    -0.64680
O91         O  0.50050209  0.02674133  0.03178566    -1.11280
C92         C  0.50586910  0.01479211  0.91906140     1.06900
O93         O  0.55217856  0.95641665  0.99977566    -0.77890
O94         O  0.57839419  0.02326924  0.96350594    -0.65470
Ni95       Ni  0.46198322  0.03403209  0.05458727     1.34870
C96         C  0.58727521  0.05780285  0.97332714     0.85630
O97         O  0.49521599  0.97015619  0.07844634    -0.78430
O98         O  0.47174072  0.01115792  0.09300030    -0.88700
C99         C  0.53130552  0.92873246  0.01973803     0.85210
O100        O  0.41513769  0.98378697  0.04501518    -0.66910
O101        O  0.51348766  0.98623445  0.92493358    -0.86190
C102        C  0.40874751  0.94948305  0.03636251     0.86040
C103        C  0.48317187  0.98544924  0.09940691     1.07600
H104        H  0.47002939  0.96265743  0.97958746     0.39410
O105        O  0.49680501  0.98108059  0.98750622    -1.08850
O106        O  0.56058371  0.06372683  0.98625210    -0.65500
Ni107      Ni  0.50151971  0.03240538  0.98629639     1.26350
O108        O  0.43788892  0.94287459  0.03105904    -0.65730
O109        O  0.50117494  0.03515956  0.94063419    -0.78020
C110        C  0.47031110  0.08149803  0.99637708     0.85420
O111        O  0.50201221  0.08214187  0.98719008    -0.65200
Ni112      Ni  0.53164567  0.97121290  0.96303465     1.27450
Ni113      Ni  0.49674181  0.97513285  0.03269604     1.26060
H114        H  0.52679255  0.04581949  0.04018367     0.39960
C115        C  0.56778471  0.09325156  0.74337503     0.04030
C116        C  0.55444863  0.06982665  0.77143429    -0.12120
C117        C  0.52005914  0.06476189  0.78681855     0.01530
C118        C  0.49666467  0.07992506  0.77272910    -0.10650
C119        C  0.50852055  0.10179136  0.74395328     0.04020
C120        C  0.54437645  0.10889717  0.72952712    -0.10070
H121        H  0.57258827  0.05824411  0.78271179     0.09620
H122        H  0.47023749  0.07629541  0.78489970     0.07140
H123        H  0.55468405  0.12772200  0.70824438     0.06990
C124        C  0.40912961  0.89816757  0.27463323     0.04030
C125        C  0.43568332  0.88809944  0.29088332    -0.12120
C126        C  0.47236601  0.89669859  0.27691115     0.01530
C127        C  0.48260805  0.91578017  0.24685408    -0.10650
C128        C  0.45634547  0.92578094  0.23039195     0.04020
C129        C  0.41965230  0.91694497  0.24440624    -0.10070
H130        H  0.42734782  0.87265607  0.31378594     0.09620
H131        H  0.51038969  0.92144584  0.23573734     0.07140
H132        H  0.39873976  0.92365636  0.23138673     0.06990
O133        O  0.21291458  0.94415557  0.32371126    -0.79990
O134        O  0.15587240  0.76103899  0.30824243    -0.64680
O135        O  0.16138413  0.86311482  0.30939642    -1.11280
C136        C  0.15050028  0.83608092  0.42224055     1.06900
O137        O  0.10446441  0.73547159  0.34134870    -0.77890
O138        O  0.08002876  0.77813084  0.37641629    -0.65470
Ni139      Ni  0.20463084  0.90847717  0.28884229     1.34870
C140        C  0.07178506  0.80397670  0.36406973     0.85630
O141        O  0.15998428  0.81219075  0.26204626    -0.78430
O142        O  0.20031374  0.87798115  0.25115424    -0.88700
C143        C  0.12554062  0.73093902  0.32049656     0.85210
O144        O  0.24785877  0.90084552  0.30486826    -0.66910
O145        O  0.14561075  0.80167546  0.41521984    -0.86190
C146        C  0.24964414  0.86849708  0.30659296     0.86040
C147        C  0.18160049  0.84104957  0.24289094     1.07600
H148        H  0.18825657  0.82279056  0.36034224     0.39410
O149        O  0.16145947  0.81589356  0.35291779    -1.08850
O150        O  0.09921056  0.83689908  0.35163135    -0.65500
Ni151      Ni  0.15799274  0.86353814  0.35494319     1.26350
O152        O  0.21809005  0.83390445  0.30736736    -0.65730
O153        O  0.15401450  0.86206723  0.40087283    -0.78020
C154        C  0.19054775  0.94589975  0.34509538     0.85420
O155        O  0.15941592  0.91412473  0.35474506    -0.65200
Ni156      Ni  0.12597632  0.77035736  0.37746971     1.27450
Ni157      Ni  0.16031782  0.81289231  0.30766429     1.26060
H158        H  0.13658176  0.85975451  0.29993144     0.39960
C159        C  0.24711080  0.82052574  0.06582985     0.04030
C160        C  0.23776146  0.82850902  0.09608810    -0.12120
C161        C  0.20565957  0.79880441  0.11425814     0.01530
C162        C  0.18091889  0.76106496  0.10000264    -0.10650
C163        C  0.18646698  0.75391240  0.06814067     0.04020
C164        C  0.22053587  0.78336067  0.05154322    -0.10070
H165        H  0.25648855  0.85823029  0.10574425     0.09620
H166        H  0.15662511  0.73701745  0.11330992     0.07140
H167        H  0.22587212  0.77776027  0.02744957     0.06990
C168        C  0.09233043  0.84547014  0.60296661     0.04030
C169        C  0.09713962  0.84113195  0.57066385    -0.12120
C170        C  0.13299398  0.86821820  0.55510130     0.01530
C171        C  0.16194320  0.90197031  0.57184294    -0.10650
C172        C  0.15608796  0.90795512  0.60385095     0.04020
C173        C  0.12236400  0.87789218  0.61976431    -0.10070
H174        H  0.07292265  0.81651540  0.55774019     0.09620
H175        H  0.18891068  0.92402362  0.55978330     0.07140
H176        H  0.11821943  0.88063009  0.64483955     0.06990
O177        O  0.72362904  0.62652394  0.65829734    -0.79990
O178        O  0.90849633  0.73969943  0.64668859    -0.64680
O179        O  0.80513481  0.64662336  0.64990813    -1.11280
C180        C  0.82617171  0.66388654  0.76192270     1.06900
O181        O  0.93461471  0.71737264  0.68421840    -0.77890
O182        O  0.88753095  0.64615791  0.71360840    -0.65470
Ni183      Ni  0.76182287  0.64327510  0.62361353     1.34870
C184        C  0.85609518  0.61275857  0.70800331     0.85630
O185        O  0.85967657  0.69162820  0.60176753    -0.78430
O186        O  0.79508283  0.65932719  0.58586626    -0.88700
C187        C  0.93861935  0.74060599  0.66073253     0.85210
O188        O  0.77178835  0.69713301  0.62770862    -0.66910
O189        O  0.86382602  0.68318361  0.75605812    -0.86190
C190        C  0.80365651  0.73005481  0.63356799     0.86040
C191        C  0.83284819  0.67873543  0.57976446     1.07600
H192        H  0.84893247  0.71717421  0.69765275     0.39410
O193        O  0.85264858  0.69475830  0.69229225    -1.08850
O194        O  0.82179894  0.60955167  0.70063285    -0.65500
Ni195      Ni  0.80133933  0.64745870  0.69522975     1.26350
O196        O  0.83701225  0.73210461  0.64180601    -0.65730
O197        O  0.79890240  0.65008530  0.74034345    -0.78020
C198        C  0.71868767  0.60456553  0.68302689     0.85420
O199        O  0.74799065  0.60245785  0.69614071    -0.65200
Ni200      Ni  0.89655879  0.69948063  0.71852545     1.27450
Ni201      Ni  0.85652542  0.69389764  0.64711085     1.26060
H202        H  0.80856908  0.62409609  0.64444338     0.39960
C203        C  0.74131037  0.58487295  0.93615719     0.04030
C204        C  0.76722607  0.57253774  0.95054556    -0.12120
C205        C  0.80551921  0.58504937  0.93777641     0.01530
C206        C  0.81760831  0.60949547  0.91026416    -0.10650
C207        C  0.79149448  0.62046649  0.89501728     0.04020
C208        C  0.75443283  0.61002745  0.90887291    -0.10070
H209        H  0.75696618  0.55177313  0.97071811     0.09620
H210        H  0.84609090  0.61728915  0.89925870     0.07140
H211        H  0.73441684  0.61874066  0.89681869     0.06990
C212        C  0.85150798  0.77791722  0.40812459     0.04030
C213        C  0.88587391  0.78511600  0.39075622    -0.12120
C214        C  0.91279548  0.77258732  0.40315376     0.01530
C215        C  0.90435231  0.75235916  0.43289759    -0.10650
C216        C  0.87000520  0.74432696  0.45017984     0.04020
C217        C  0.84380680  0.75720213  0.43759487    -0.10070
H218        H  0.89168640  0.80057722  0.36787793     0.09620
H219        H  0.92492442  0.74295342  0.44285557     0.07140
H220        H  0.81758268  0.75170242  0.45109136     0.06990
O221        O  0.05213503  0.28317360  0.32340471    -0.79990
O222        O  0.23585279  0.41066023  0.31443470    -0.64680
O223        O  0.13597135  0.31198389  0.31709659    -1.11280
C224        C  0.15108631  0.33011776  0.42893867     1.06900
O225        O  0.26211467  0.39023842  0.35331125    -0.77890
O226        O  0.21876530  0.31966559  0.38345282    -0.65470
Ni227      Ni  0.09129077  0.30231743  0.28967050     1.34870
C228        C  0.18915359  0.28523151  0.37754117     0.85630
O229        O  0.18909676  0.35999824  0.26986660    -0.78430
O230        O  0.12530553  0.32048575  0.25275185    -0.88700
C231        C  0.26624183  0.41221464  0.32891050     0.85210
O232        O  0.09528931  0.35366156  0.29271954    -0.66910
O233        O  0.18874012  0.35242295  0.42363495    -0.86190
C234        C  0.12426496  0.38837692  0.29903105     0.86040
C235        C  0.16278466  0.34415030  0.24777747     1.07600
H236        H  0.17274428  0.38383544  0.36443469     0.39410
O237        O  0.17893357  0.36288628  0.35963187    -1.08850
O238        O  0.15437432  0.27927570  0.36896034    -0.65500
Ni239      Ni  0.12995395  0.31296843  0.36192697     1.26350
O240        O  0.15932197  0.39521320  0.30810791    -0.65730
O241        O  0.12465509  0.31535895  0.40680626    -0.78020
C242        C  0.04945447  0.26262846  0.34840373     0.85420
O243        O  0.08015375  0.26440192  0.36199949    -0.65200
Ni244      Ni  0.22306344  0.37110045  0.38696552     1.27450
Ni245      Ni  0.18479925  0.36214179  0.31470512     1.26060
H246        H  0.14255001  0.29123181  0.31253094     0.39960
C247        C  0.25211483  0.43492488  0.07604230     0.04030
C248        C  0.22468413  0.44384145  0.06013386    -0.12120
C249        C  0.18587145  0.42970793  0.07241805     0.01530
C250        C  0.17471471  0.40598338  0.10046066    -0.10650
C251        C  0.20273750  0.39877968  0.11718124     0.04020
C252        C  0.24117111  0.41274133  0.10469267    -0.10070
H253        H  0.23398266  0.46268534  0.03882298     0.09620
H254        H  0.14515815  0.39557168  0.11053318     0.07140
H255        H  0.26307328  0.40762608  0.11786242     0.06990
C256        C  0.15631052  0.24540483  0.60040143     0.04030
C257        C  0.15934342  0.26218140  0.56976864    -0.12120
C258        C  0.12880761  0.26927147  0.55785715     0.01530
C259        C  0.09497054  0.25878243  0.57623900    -0.10650
C260        C  0.09228610  0.24402222  0.60751825     0.04020
C261        C  0.12337036  0.23748097  0.61965126    -0.10070
H262        H  0.18501769  0.26897930  0.55502656     0.09620
H263        H  0.07067387  0.26266977  0.56609429     0.07140
H264        H  0.12198028  0.22611416  0.64374611     0.06990
O265        O  0.61791711  0.73295326  0.35178957    -0.79990
O266        O  0.72869450  0.91766101  0.37226285    -0.64680
O267        O  0.63754116  0.81242652  0.36595345    -1.11280
C268        C  0.65628699  0.84525237  0.25520916     1.06900
O269        O  0.69709911  0.93923375  0.34058743    -0.77890
O270        O  0.63202123  0.89567097  0.30515170    -0.65470
Ni271      Ni  0.63516751  0.76774154  0.38891542     1.34870
C272        C  0.59958462  0.86388803  0.31229621     0.85630
O273        O  0.68138548  0.86344196  0.41571653    -0.78430
O274        O  0.65148527  0.79796133  0.42859907    -0.88700
C275        C  0.72578674  0.94676075  0.35985383     0.85210
O276        O  0.68914120  0.77922475  0.38205130    -0.66910
O277        O  0.67696431  0.88197852  0.26319646    -0.86190
C278        C  0.72197598  0.81195650  0.37809196     0.86040
C279        C  0.66903768  0.83516429  0.43649863     1.07600
H280        H  0.70745822  0.86149531  0.31852934     0.39410
O281        O  0.68451640  0.86378276  0.32515657    -1.08850
O282        O  0.59841791  0.83078510  0.31954083    -0.65500
Ni283      Ni  0.63784095  0.81268129  0.32039315     1.26350
O284        O  0.72357496  0.84591276  0.37344434    -0.65730
O285        O  0.64004986  0.81553110  0.27479127    -0.78020
C286        C  0.59478270  0.72957726  0.32811380     0.85420
O287        O  0.59285535  0.75986741  0.31741768    -0.65200
Ni288      Ni  0.68712456  0.90898574  0.30275959     1.27450
Ni289      Ni  0.68400260  0.86420107  0.37044320     1.26060
H290        H  0.61466096  0.81453946  0.37281546     0.39960
C291        C  0.59518969  0.82927777  0.07166076     0.04030
C292        C  0.61390779  0.84059388  0.10148630    -0.12120
C293        C  0.61697316  0.81227555  0.12152515     0.01530
C294        C  0.60465967  0.77369119  0.10979014    -0.10650
C295        C  0.58939684  0.76378065  0.07857287     0.04020
C296        C  0.58479583  0.79177056  0.05956264    -0.10070
H297        H  0.62258367  0.87032421  0.11014099     0.09620
H298        H  0.60552101  0.75091759  0.12516770     0.07140
H299        H  0.57069252  0.78346594  0.03618555     0.06990
C300        C  0.77121310  0.86094114  0.60527519     0.04030
C301        C  0.78307129  0.89772736  0.62060001    -0.12120
C302        C  0.76709163  0.92258117  0.61053195     0.01530
C303        C  0.73994147  0.91085387  0.58444057    -0.10650
C304        C  0.72971222  0.87551823  0.56756237     0.04020
C305        C  0.74418872  0.85025684  0.57918170    -0.10070
H306        H  0.80495912  0.90729782  0.63995475     0.09620
H307        H  0.72824654  0.93032438  0.57641339     0.07140
H308        H  0.73585066  0.82265988  0.56675063     0.06990
O309        O  0.28861140  0.07019623  0.67324650    -0.79990
O310        O  0.40344317  0.25107925  0.69569756    -0.64680
O311        O  0.30965310  0.14964751  0.68639056    -1.11280
C312        C  0.33402551  0.17627208  0.57490316     1.06900
O313        O  0.38782285  0.28024988  0.65583910    -0.77890
O314        O  0.32036622  0.23728533  0.62069758    -0.65470
Ni315      Ni  0.30430754  0.10406308  0.70990497     1.34870
C316        C  0.28557391  0.20925204  0.62837151     0.85630
O317        O  0.34907727  0.19963727  0.73657369    -0.78430
O318        O  0.31934870  0.13384696  0.74892924    -0.88700
C319        C  0.40621209  0.28205538  0.68194083     0.85210
O320        O  0.35753050  0.11315854  0.70488964    -0.66910
O321        O  0.35928223  0.21248385  0.58227862    -0.86190
C322        C  0.39099880  0.14550067  0.70341633     0.86040
C323        C  0.33534730  0.17071624  0.75692178     1.07600
H324        H  0.38354001  0.19183825  0.64271845     0.39410
O325        O  0.36217696  0.19778080  0.64673806    -1.08850
O326        O  0.27922038  0.17460499  0.63798082    -0.65500
Ni327      Ni  0.31234393  0.14900326  0.64137188     1.26350
O328        O  0.39405758  0.17992296  0.69942197    -0.65730
O329        O  0.31527062  0.14911431  0.59597225    -0.78020
C330        C  0.26426864  0.06737993  0.65105341     0.85420
O331        O  0.26420133  0.09816017  0.63901600    -0.65200
Ni332      Ni  0.37296203  0.24359899  0.62055296     1.27450
Ni333      Ni  0.35696222  0.19986813  0.69182328     1.26060
H334        H  0.28695462  0.15281676  0.69205565     0.39960
C335        C  0.40706175  0.17600170  0.93452082     0.04030
C336        C  0.39092460  0.17055037  0.90334157    -0.12120
C337        C  0.37655799  0.19575852  0.89088712     0.01530
C338        C  0.37981725  0.22725494  0.90930991    -0.10650
C339        C  0.39799812  0.23409767  0.93937719     0.04020
C340        C  0.40895339  0.20713593  0.95275189    -0.10070
H341        H  0.39066670  0.14767496  0.88842697     0.09620
H342        H  0.37081952  0.24816280  0.89943775     0.07140
H343        H  0.42191611  0.21242569  0.97658134     0.06990
C344        C  0.23527553  0.16434943  0.40553556     0.04030
C345        C  0.22371531  0.12831899  0.38949017    -0.12120
C346        C  0.23867931  0.10287032  0.39964015     0.01530
C347        C  0.26448729  0.11292815  0.42623258    -0.10650
C348        C  0.27447966  0.14754588  0.44356010     0.04020
C349        C  0.26129201  0.17397474  0.43225701    -0.10070
H350        H  0.20250526  0.11960324  0.36967425     0.09620
H351        H  0.27472665  0.09238165  0.43464261     0.07140
H352        H  0.26933128  0.20099850  0.44546515     0.06990
O353        O  0.55342046  0.60316550  0.00503834    -0.79990
O354        O  0.48663566  0.42373289  0.97890540    -0.64680
O355        O  0.49349667  0.52502871  0.99128506    -1.11280
C356        C  0.48815535  0.48762375  0.10063951     1.06900
O357        O  0.43545565  0.39801737  0.01109831    -0.77890
O358        O  0.41255649  0.43788207  0.04736578    -0.65470
Ni359      Ni  0.52902451  0.57179571  0.96757251     1.34870
C360        C  0.41143137  0.47032279  0.04419834     0.85630
O361        O  0.48783758  0.47954969  0.93814278    -0.78430
O362        O  0.50751944  0.54432710  0.92789708    -0.88700
C363        C  0.45624869  0.39307315  0.99055884     0.85210
O364        O  0.57308410  0.56196368  0.96575125    -0.66910
O365        O  0.47203885  0.45160267  0.09060001    -0.86190
C366        C  0.57756385  0.53183421  0.97219518     0.86040
C367        C  0.49439800  0.50831341  0.91862682     1.07600
H368        H  0.52131783  0.47536005  0.03486526     0.39410
O369        O  0.49561875  0.47310626  0.02902258    -1.08850
O370        O  0.44254211  0.50449320  0.04015773    -0.65500
Ni371      Ni  0.49925881  0.52339437  0.03667998     1.26350
O372        O  0.54913641  0.49755803  0.98100081    -0.65730
O373        O  0.50285699  0.51888098  0.08239062    -0.78020
C374        C  0.53524776  0.60586447  0.02903710     0.85420
O375        O  0.50596133  0.57531451  0.04172878    -0.65200
Ni376      Ni  0.45554979  0.42633765  0.04999658     1.27450
Ni377      Ni  0.49157135  0.47546015  0.98369718     1.26060
H378        H  0.46684164  0.52085791  0.98629616     0.39960
C379        C  0.56116950  0.50358998  0.74121359     0.04030
C380        C  0.53712539  0.46575629  0.72746696    -0.12120
C381        C  0.50013827  0.43765771  0.74068566     0.01530
C382        C  0.48736949  0.44690572  0.76866571    -0.10650
C383        C  0.51212766  0.48292348  0.78468381     0.04020
C384        C  0.54809263  0.51195531  0.76989308    -0.10070
H385        H  0.54739901  0.45768448  0.70647723     0.09620
H386        H  0.45883089  0.42488993  0.77891129     0.07140
H387        H  0.56650476  0.54055253  0.78128658     0.06990
C388        C  0.42805997  0.51016835  0.27887905     0.04030
C389        C  0.43919039  0.49344094  0.25422391    -0.12120
C390        C  0.47111323  0.51805249  0.23347037     0.01530
C391        C  0.49637529  0.55864004  0.24252669    -0.10650
C392        C  0.48962449  0.57338692  0.27078117     0.04020
C393        C  0.45398934  0.54989635  0.28751367    -0.10070
H394        H  0.42148078  0.46138849  0.25102965     0.09620
H395        H  0.52124061  0.57928915  0.22777413     0.07140
H396        H  0.44646974  0.56278300  0.30716489     0.06990
C397        C  0.48532404  0.49221663  0.13541796    -0.04440
C398        C  0.44708084  0.47119500  0.14978817    -0.01560
C399        C  0.44240462  0.47630998  0.18227220     0.03430
C400        C  0.47625466  0.50345095  0.20128105    -0.04440
C401        C  0.51525302  0.51988371  0.18743448    -0.01540
C402        C  0.51951748  0.51585155  0.15446785     0.03430
C403        C  0.41156743  0.44463331  0.13086482     0.38080
C404        C  0.55132033  0.53842056  0.20734243     0.38070
C405        C  0.55921339  0.53531123  0.14024789     0.36490
C406        C  0.40233256  0.45132830  0.19505317     0.36500
N407        N  0.59083975  0.55090928  0.12880544    -0.38320
N408        N  0.37003147  0.42914926  0.20379591    -0.38330
N409        N  0.58016784  0.55311664  0.22315606    -0.37770
N410        N  0.38301445  0.42313174  0.11637350    -0.37770
C411        C  0.48964790  0.49997015  0.88319045    -0.04440
C412        C  0.49988310  0.53124154  0.85988996    -0.01560
C413        C  0.50423410  0.52472022  0.82744740     0.03430
C414        C  0.50191154  0.48828738  0.81806140    -0.04440
C415        C  0.48978062  0.45661242  0.84100700    -0.01540
C416        C  0.47983384  0.46129172  0.87215453     0.03430
C417        C  0.50562531  0.57027289  0.86862271     0.38080
C418        C  0.49016000  0.41978319  0.83376033     0.38070
C419        C  0.45874213  0.42559385  0.89224930     0.36490
C420        C  0.51082191  0.55562165  0.80373279     0.36500
N421        N  0.44104586  0.39679723  0.90774950    -0.38320
N422        N  0.51607156  0.58029030  0.78485587    -0.38330
N423        N  0.49055717  0.39045871  0.82815435    -0.37770
N424        N  0.51036861  0.60155649  0.87532118    -0.37770
C425        C  0.41342977  0.27375406  0.95383835    -0.04440
C426        C  0.39130003  0.27948454  0.97726585    -0.01560
C427        C  0.40572356  0.31792042  0.99013806     0.03430
C428        C  0.44253452  0.35146100  0.97890546    -0.04440
C429        C  0.46563731  0.34446131  0.95640259    -0.01540
C430        C  0.45107652  0.30573306  0.94414587     0.03430
C431        C  0.35361367  0.24553722  0.98818469     0.38080
C432        C  0.50455445  0.37650315  0.94555544     0.38070
C433        C  0.47530329  0.29856787  0.92176137     0.36490
C434        C  0.38212036  0.32177780  0.01513609     0.36500
N435        N  0.49490419  0.29299258  0.90414643    -0.38320
N436        N  0.36320997  0.32450250  0.03513910    -0.38330
N437        N  0.53549837  0.40182212  0.93661877    -0.37770
N438        N  0.32366433  0.21848750  0.99696396    -0.37770
C439        C  0.34014103  0.18004826  0.79180302    -0.04440
C440        C  0.37018101  0.21835360  0.80283669    -0.01560
C441        C  0.38172290  0.22366150  0.83520469     0.03430
C442        C  0.36181517  0.19165841  0.85737543    -0.04440
C443        C  0.32777698  0.15574857  0.84739894    -0.01540
C444        C  0.31711916  0.14966358  0.81480126     0.03430
C445        C  0.39024244  0.25284054  0.78141125     0.38080
C446        C  0.30261472  0.12571461  0.87087964     0.38070
C447        C  0.28166458  0.11238750  0.80543352     0.36490
C448        C  0.41482039  0.26226930  0.84518702     0.36500
N449        N  0.25335868  0.08259250  0.79816595    -0.38320
N450        N  0.44082765  0.29368271  0.85224154    -0.38330
N451        N  0.28185330  0.10195990  0.88943670    -0.37770
N452        N  0.40665064  0.28105082  0.76510340    -0.37770
C453        C  0.43005941  0.32130591  0.69757734    -0.04440
C454        C  0.47070240  0.33515877  0.70645527    -0.01560
C455        C  0.49318355  0.37255320  0.72150207     0.03430
C456        C  0.47578960  0.39731848  0.72617016    -0.04440
C457        C  0.43482440  0.38291425  0.71777222    -0.01540
C458        C  0.41161944  0.34421875  0.70503225     0.03430
C459        C  0.48929102  0.31073239  0.70047245     0.38080
C460        C  0.41646137  0.40794397  0.72178763     0.38070
C461        C  0.36807683  0.32637081  0.70283307     0.36490
C462        C  0.53375120  0.38480496  0.73310662     0.36500
N463        N  0.33326847  0.31185997  0.70232979    -0.38320
N464        N  0.56606614  0.39456607  0.74241438    -0.38330
N465        N  0.40177595  0.42787001  0.72495690    -0.37770
N466        N  0.50404047  0.29116979  0.69581848    -0.37770
C467        C  0.32355067  0.16598067  0.54008744    -0.04440
C468        C  0.28899704  0.12891944  0.53119591    -0.01560
C469        C  0.27349771  0.12315180  0.49978204     0.03430
C470        C  0.29326867  0.15294247  0.47597613    -0.04440
C471        C  0.32938816  0.18828227  0.48373438    -0.01540
C472        C  0.34457102  0.19487864  0.51541031     0.03430
C473        C  0.26785088  0.09613139  0.55391255     0.38080
C474        C  0.35079075  0.21828070  0.45903589     0.38070
C475        C  0.38190170  0.23181069  0.52201302     0.36490
C476        C  0.23538132  0.08716212  0.49254285     0.36500
N477        N  0.41161042  0.26141836  0.52705783    -0.38320
N478        N  0.20503576  0.05851720  0.48690927    -0.38330
N479        N  0.36774332  0.24228224  0.43937907    -0.37770
N480        N  0.25013823  0.06918983  0.57116738    -0.37770
C481        C  0.57536165  0.72296890  0.06642635    -0.04440
C482        C  0.60330171  0.70938750  0.06233347    -0.01560
C483        C  0.59004330  0.67052349  0.05087247     0.03250
C484        C  0.54900810  0.64559686  0.04266689    -0.04440
C485        C  0.52118842  0.65936487  0.04609182    -0.01540
C486        C  0.53427256  0.69794803  0.05798031     0.03430
C487        C  0.64606910  0.73615594  0.06803038     0.38080
C488        C  0.47934921  0.63448272  0.03603560     0.38070
C489        C  0.50524782  0.71179898  0.06060986     0.36490
C490        C  0.61864747  0.65615307  0.04790805     0.36500
N491        N  0.48126897  0.72190224  0.06174635    -0.38320
N492        N  0.64175448  0.64505595  0.04566422    -0.38330
N493        N  0.44609096  0.61469396  0.02791222    -0.37770
N494        N  0.68032864  0.75736174  0.07194965    -0.37770
C495        C  0.57025292  0.68946793  0.31218343    -0.04440
C496        C  0.56034967  0.65298602  0.32893245    -0.01560
C497        C  0.53678712  0.61551291  0.31413267     0.03430
C498        C  0.51956459  0.61337390  0.28363659    -0.04440
C499        C  0.52956445  0.64914925  0.26656374    -0.01540
C500        C  0.55617171  0.68688430  0.28006967     0.03430
C501        C  0.57312931  0.65315090  0.36178921     0.38080
C502        C  0.51183927  0.64719666  0.23519512     0.38070
C503        C  0.56996626  0.72224434  0.25965796     0.36490
C504        C  0.53122515  0.57893524  0.33001630     0.36500
N505        N  0.58011300  0.74899885  0.24184908    -0.38320
N506        N  0.52748687  0.54993771  0.34246465    -0.38330
N507        N  0.49767857  0.64559478  0.21021850    -0.37770
N508        N  0.58308999  0.65298618  0.38801620    -0.37770
C509        C  0.64770539  0.83741074  0.22107874    -0.04440
C510        C  0.66659288  0.82081563  0.20328019    -0.01560
C511        C  0.65797695  0.81416001  0.17041073     0.03430
C512        C  0.62826757  0.82150957  0.15577414    -0.04440
C513        C  0.60895633  0.83757308  0.17426648    -0.01540
C514        C  0.62012948  0.84718432  0.20625624     0.03430
C515        C  0.69577312  0.81183790  0.21863390     0.38080
C516        C  0.57694844  0.84398930  0.16120273     0.38070
C517        C  0.60349525  0.86793018  0.22371235     0.36490
C518        C  0.68113464  0.80156124  0.15165727     0.36500
N519        N  0.59050412  0.88532843  0.23668130    -0.38320
N520        N  0.70024398  0.79185484  0.13711737    -0.38330
N521        N  0.55176727  0.85028861  0.15189925    -0.37770
N522        N  0.71903828  0.80467949  0.23092455    -0.37770
C523        C  0.67795388  0.84671616  0.47141915    -0.04440
C524        C  0.70526979  0.88732830  0.48014673    -0.01560
C525        C  0.72240513  0.89647298  0.51109758     0.03430
C526        C  0.70826049  0.86678783  0.53560132    -0.04440
C527        C  0.67610681  0.82783367  0.52835232    -0.01540
C528        C  0.66197851  0.81745097  0.49649354     0.03430
C529        C  0.71567094  0.92072905  0.45803992     0.38080
C530        C  0.65739254  0.79817102  0.55376972     0.38070
C531        C  0.63025460  0.77665063  0.49011574     0.36490
C532        C  0.75686055  0.93606639  0.51681548     0.36500
N533        N  0.60492666  0.74404214  0.48520425    -0.38320
N534        N  0.78455307  0.96742662  0.52146124    -0.38330
N535        N  0.64243842  0.77448004  0.57401345    -0.37770
N536        N  0.72350427  0.94790929  0.44112312    -0.37770
C537        C  0.18768704  0.23550478  0.61163522    -0.04440
C538        C  0.22660881  0.26668469  0.61936019    -0.01560
C539        C  0.25832708  0.25829832  0.62520009     0.03430
C540        C  0.25106723  0.21784090  0.62484467    -0.04440
C541        C  0.21112202  0.18640420  0.61830785    -0.01540
C542        C  0.17994328  0.19540235  0.61126244     0.03430
C543        C  0.23425297  0.30787683  0.62046424     0.38080
C544        C  0.20209207  0.14488690  0.61628176     0.38070
C545        C  0.14039471  0.16356339  0.60138051     0.36490
C546        C  0.29864570  0.29227436  0.62971469     0.36500
N547        N  0.10910726  0.13814025  0.59307698    -0.38320
N548        N  0.33070518  0.31984741  0.63220378    -0.38330
N549        N  0.19444730  0.11166232  0.61443670    -0.37770
N550        N  0.24041846  0.34070056  0.62141795    -0.37770
C551        C  0.37180504  0.46788518  0.04734816    -0.04440
C552        C  0.33829804  0.43957349  0.02949559    -0.01560
C553        C  0.29898248  0.43035847  0.03771831     0.03430
C554        C  0.29319239  0.44976324  0.06359653    -0.04440
C555        C  0.32694276  0.48061733  0.07956647    -0.01540
C556        C  0.36621977  0.48972774  0.07145441     0.03430
C557        C  0.34433723  0.41953069  0.00296671     0.38080
C558        C  0.32146954  0.50235294  0.10502061     0.38070
C559        C  0.40058616  0.51950528  0.08955927     0.36490
C560        C  0.26446087  0.39923497  0.02076564     0.36500
N561        N  0.42793653  0.54313258  0.10406129    -0.38320
N562        N  0.23704980  0.37424275  0.00723778    -0.38330
N563        N  0.31825828  0.52045475  0.12532983    -0.37770
N564        N  0.34925016  0.40371568  0.98174138    -0.37770
C565        C  0.21799888  0.19088783  0.39642847    -0.04440
C566        C  0.20008908  0.20245583  0.42008680    -0.01560
C567        C  0.19175377  0.23394386  0.41394664     0.03430
C568        C  0.19553767  0.25032257  0.38290607    -0.04440
C569        C  0.20972304  0.23621093  0.35831543    -0.01540
C570        C  0.22210571  0.20742982  0.36521292     0.03430
C571        C  0.19048752  0.18226455  0.45107757     0.38080
C572        C  0.21373174  0.25308021  0.32639667     0.38070
C573        C  0.24091916  0.19657779  0.34060083     0.36490
C574        C  0.18380844  0.25215902  0.44063349     0.36500
N575        N  0.25597333  0.18794194  0.32095602    -0.38320
N576        N  0.17961232  0.26663884  0.46302168    -0.38330
N577        N  0.21685603  0.26662370  0.30096155    -0.37770
N578        N  0.18277662  0.16619194  0.47574868    -0.37770
C579        C  0.13110652  0.28656353  0.52551868    -0.04440
C580        C  0.15856829  0.32749364  0.51911231    -0.01560
C581        C  0.16194070  0.34329944  0.48791371     0.03430
C582        C  0.13843209  0.31792671  0.46270386    -0.04440
C583        C  0.10784901  0.27788101  0.47014213    -0.01540
C584        C  0.10460789  0.26231090  0.50136613     0.03430
C585        C  0.18350491  0.35329561  0.54466505     0.38080
C586        C  0.08200223  0.25079602  0.44561303     0.38070
C587        C  0.07561907  0.22034099  0.50824279     0.36490
C588        C  0.18977183  0.38571808  0.48186524     0.36500
N589        N  0.05262160  0.18691422  0.51375790    -0.38320
N590        N  0.21195105  0.41956767  0.47711287    -0.38330
N591        N  0.06100755  0.22824416  0.42669300    -0.37770
N592        N  0.20336760  0.37390425  0.56503882    -0.37770
C593        C  0.19451678  0.38370785  0.15050406    -0.04440
C594        C  0.20825994  0.41180683  0.17531151    -0.01560
C595        C  0.19936605  0.39861428  0.20711060     0.03430
C596        C  0.17606356  0.35690521  0.21446985    -0.04440
C597        C  0.16257436  0.32869616  0.18956463    -0.01540
C598        C  0.17191079  0.34214058  0.15761136     0.03430
C599        C  0.22960559  0.45470169  0.16812441     0.38080
C600        C  0.13925715  0.28591370  0.19676892     0.38070
C601        C  0.15780790  0.31337584  0.13198462     0.36490
C602        C  0.21172143  0.42857443  0.23190862     0.36500
N603        N  0.14652437  0.29044500  0.11150435    -0.38320
N604        N  0.22158951  0.45265285  0.25142691    -0.38330
N605        N  0.12059916  0.25177087  0.20252391    -0.37770
N606        N  0.24605321  0.48904280  0.16306206    -0.37770
C607        C  0.30779716  0.43880029  0.31668258    -0.04440
C608        C  0.34123672  0.45815112  0.33794078    -0.01560
C609        C  0.38088931  0.48021699  0.32594971     0.03430
C610        C  0.38697656  0.48727922  0.29280772    -0.04440
C611        C  0.35304439  0.47215693  0.27225857    -0.01540
C612        C  0.31489365  0.44392709  0.28362644     0.03430
C613        C  0.33523191  0.45519797  0.37212939     0.38080
C614        C  0.35651800  0.48779599  0.23994586     0.38070
C615        C  0.28651722  0.41512207  0.26131419     0.36490
C616        C  0.41502942  0.49529305  0.34781980     0.36500
N617        N  0.26635170  0.39122913  0.24288929    -0.38320
N618        N  0.44181136  0.50703176  0.36573701    -0.38330
N619        N  0.35888445  0.50098002  0.21445119    -0.37770
N620        N  0.33052497  0.45294765  0.39940359    -0.37770
C621        C  0.82325939  0.79242635  0.39649829    -0.04440
C622        C  0.81806505  0.82015971  0.41477925    -0.01560
C623        C  0.78645559  0.82847191  0.40752041     0.03430
C624        C  0.76008104  0.80989531  0.38140063    -0.04440
C625        C  0.76684438  0.78415559  0.36188957    -0.01540
C626        C  0.79822557  0.77543291  0.36939873     0.03430
C627        C  0.84464617  0.83933240  0.44182066     0.38080
C628        C  0.74071866  0.76578229  0.33449651     0.38070
C629        C  0.80324732  0.74716762  0.35025591     0.36490
C630        C  0.77907261  0.85348410  0.42873189     0.36500
N631        N  0.80731364  0.72460738  0.33501407    -0.38320
N632        N  0.77328545  0.87316523  0.44602277    -0.38330
N633        N  0.71984849  0.75118664  0.31263646    -0.37770
N634        N  0.86581008  0.85451061  0.46341706    -0.37770
C635        C  0.69866153  0.56744340  0.94704792    -0.04440
C636        C  0.68977559  0.57079370  0.97911115    -0.01560
C637        C  0.64928431  0.55542356  0.98852435     0.03430
C638        C  0.61770086  0.53702870  0.96603911    -0.04440
C639        C  0.62610869  0.53122244  0.93489063    -0.01540
C640        C  0.66618577  0.54686440  0.92521690     0.03430
C641        C  0.72201955  0.59235727  0.00201018     0.38080
C642        C  0.59337154  0.50992056  0.91219031     0.38070
C643        C  0.67291826  0.54289178  0.89208861     0.36490
C644        C  0.63986055  0.55846693  0.02125996     0.36500
N645        N  0.67571436  0.53967857  0.86512755    -0.38320
N646        N  0.63208130  0.56021579  0.04745433    -0.38330
N647        N  0.56814003  0.49273332  0.89354386    -0.37770
N648        N  0.74727416  0.60964898  0.02065294    -0.37770
C649        C  0.67771824  0.58185894  0.69747160    -0.04440
C650        C  0.67329479  0.58116515  0.73077965    -0.01560
C651        C  0.63646276  0.55370149  0.74505637     0.03430
C652        C  0.60098410  0.53277266  0.72622205    -0.04440
C653        C  0.60425309  0.53897615  0.69261248    -0.01540
C654        C  0.64260904  0.56107678  0.67831611     0.03430
C655        C  0.70411452  0.61264624  0.75012402     0.38080
C656        C  0.56832311  0.52354010  0.67253562     0.38070
C657        C  0.64568088  0.56208772  0.64387915     0.36490
C658        C  0.63618158  0.54606832  0.77902591     0.36500
N659        N  0.64808036  0.56279375  0.61641008    -0.38320
N660        N  0.63563303  0.53969514  0.80612699    -0.38330
N661        N  0.53972760  0.51129850  0.65646982    -0.37770
N662        N  0.72677008  0.63861826  0.76607618    -0.37770
C663        C  0.81369778  0.65473298  0.79579910    -0.04440
C664        C  0.78562624  0.61467490  0.80502150    -0.01560
C665        C  0.77980846  0.60375654  0.83745715     0.03430
C666        C  0.79835832  0.63329151  0.86107671    -0.04440
C667        C  0.82492154  0.67359787  0.85211634    -0.01540
C668        C  0.83308385  0.68425363  0.81955309     0.03430
C669        C  0.76545373  0.58340465  0.78140132     0.38080
C670        C  0.84509222  0.70362944  0.87646807     0.38070
C671        C  0.86143734  0.72558772  0.81057428     0.36490
C672        C  0.75805136  0.56135562  0.84635080     0.36500
N673        N  0.88419382  0.75853835  0.80342201    -0.38320
N674        N  0.74124174  0.52734122  0.85283624    -0.38330
N675        N  0.86134673  0.72754696  0.89591756    -0.37770
N676        N  0.74936703  0.55820649  0.76286210    -0.37770
C677        C  0.80200386  0.76795660  0.62822005    -0.04440
C678        C  0.79230503  0.78586075  0.65304664    -0.01560
C679        C  0.78404804  0.81772863  0.64626346     0.03430
C680        C  0.78752485  0.83332136  0.61473163    -0.04440
C681        C  0.80202373  0.81828077  0.59083944    -0.01540
C682        C  0.80685002  0.78448062  0.59711338     0.03430
C683        C  0.78919579  0.77029634  0.68531858     0.38080
C684        C  0.81136981  0.83709036  0.55932077     0.38070
C685        C  0.81387336  0.76521724  0.57064858     0.36490
C686        C  0.77009654  0.83289213  0.67148483     0.36500
N687        N  0.81832514  0.75055472  0.54848050    -0.38320
N688        N  0.75906649  0.84508528  0.69165773    -0.38330
N689        N  0.81862566  0.85183322  0.53415017    -0.37770
N690        N  0.78696590  0.75792896  0.71108184    -0.37770
C691        C  0.84591478  0.68977926  0.54538409    -0.04440
C692        C  0.81839342  0.67043695  0.51975532    -0.01560
C693        C  0.82672473  0.68755348  0.48859241     0.03430
C694        C  0.86256670  0.72415341  0.48237424    -0.04440
C695        C  0.89149781  0.74164550  0.50704884    -0.01540
C696        C  0.88400385  0.72386332  0.53785486     0.03430
C697        C  0.78162554  0.63243095  0.52498748     0.38080
C698        C  0.92839226  0.77952413  0.50131462     0.38070
C699        C  0.91611603  0.74173267  0.56139533     0.36490
C700        C  0.79827368  0.66737480  0.46278566     0.36500
N701        N  0.94275579  0.75635460  0.57932421    -0.38320
N702        N  0.77560391  0.65133156  0.44217869    -0.38330
N703        N  0.95774159  0.80972628  0.49681981    -0.37770
N704        N  0.75229679  0.60205384  0.52900670    -0.37770
C705        C  0.18386940  0.94708964  0.61943537    -0.04440
C706        C  0.22610003  0.96441750  0.61596836    -0.01560
C707        C  0.25195028  0.00475018  0.62420404     0.03430
C708        C  0.23650618  0.02696565  0.63893392    -0.04440
C709        C  0.19506660  0.00890402  0.64520024    -0.01540
C710        C  0.16859186  0.96939161  0.63506920     0.03430
C711        C  0.24334383  0.94049061  0.60490233     0.38080
C712        C  0.17980140  0.03082387  0.66274136     0.38070
C713        C  0.12596244  0.95245047  0.64142809     0.36490
C714        C  0.29407673  0.02397457  0.61553776     0.36500
N715        N  0.09240470  0.93977765  0.64783197    -0.38320
N716        N  0.32722756  0.03869239  0.60740960    -0.38330
N717        N  0.16769827  0.04818654  0.67689514    -0.37770
N718        N  0.25718637  0.92149145  0.59616008    -0.37770
C719        C  0.05364678  0.81865033  0.61853555    -0.04440
C720        C  0.02492290  0.83142252  0.62104092    -0.01560
C721        C  0.98872836  0.80719452  0.63720427     0.03430
C722        C  0.97932558  0.76823493  0.64821231    -0.04440
C723        C  0.00792439  0.75509766  0.64503227    -0.01540
C724        C  0.04553541  0.78086706  0.63102941     0.03430
C725        C  0.03172166  0.86861655  0.60554049     0.38080
C726        C  0.99817053  0.71452823  0.65463713     0.38070
C727        C  0.07576066  0.76843046  0.62925834     0.36490
C728        C  0.96118479  0.82248273  0.64231753     0.36500
N729        N  0.09984760  0.75844049  0.62816077    -0.38320
N730        N  0.93928066  0.83469221  0.64646221    -0.38330
N731        N  0.99032930  0.68211203  0.66211896    -0.37770
N732        N  0.03677928  0.89791447  0.59275075    -0.37770
C733        C  0.20263151  0.98639798  0.35937977    -0.04440
C734        C  0.24162895  0.02036495  0.35334713    -0.01560
C735        C  0.25247665  0.05853333  0.36552948     0.03430
C736        C  0.22529223  0.06371613  0.38416190    -0.04440
C737        C  0.18718375  0.03053926  0.39107987    -0.01540
C738        C  0.17609700  0.99196941  0.37945126     0.03430
C739        C  0.27226446  0.01659728  0.33619896     0.38080
C740        C  0.15979975  0.03597379  0.41126195     0.38070
C741        C  0.13859062  0.95820109  0.39061671     0.36490
C742        C  0.29217249  0.09280820  0.35923021     0.36500
N743        N  0.10919852  0.93186997  0.40092891    -0.38320
N744        N  0.32377854  0.12014774  0.35434507    -0.38330
N745        N  0.13804589  0.04044449  0.42729255    -0.37770
N746        N  0.29704726  0.01402114  0.32271613    -0.37770
C747        C  0.95034520  0.78013362  0.38597581    -0.04440
C748        C  0.95776579  0.74785338  0.38132262    -0.01560
C749        C  0.99652369  0.75520096  0.37266007     0.03430
C750        C  0.02834679  0.79516275  0.36629683    -0.04440
C751        C  0.01831973  0.82643859  0.36541089    -0.01540
C752        C  0.98049146  0.81941457  0.37683638     0.03430
C753        C  0.92532000  0.70664716  0.38583803     0.38080
C754        C  0.04607144  0.86569238  0.35206131     0.38070
C755        C  0.97366922  0.85318568  0.38078423     0.36490
C756        C  0.00298864  0.72091113  0.37072968     0.36500
N757        N  0.96829501  0.88016700  0.38405503    -0.38320
N758        N  0.00777366  0.69329626  0.36984827    -0.38330
N759        N  0.06741370  0.89670990  0.34043586    -0.37770
N760        N  0.89945817  0.67384925  0.38944326    -0.37770
C761        C  0.15000516  0.84519876  0.45695024    -0.04440
C762        C  0.13417643  0.81365600  0.48039564    -0.01560
C763        C  0.13207523  0.82215650  0.51255519     0.03430
C764        C  0.13997196  0.86090710  0.52144473    -0.04440
C765        C  0.15470588  0.89217799  0.49808036    -0.01540
C766        C  0.16277704  0.88502314  0.46694926     0.03430
C767        C  0.11850036  0.77176081  0.47206134     0.38080
C768        C  0.16016196  0.93155771  0.50532656     0.38070
C769        C  0.18628107  0.91934531  0.44611776     0.36490
C770        C  0.12236575  0.79064230  0.53650247     0.36500
N771        N  0.20603053  0.94705000  0.43009462    -0.38320
N772        N  0.11463887  0.76523565  0.55526463    -0.38330
N773        N  0.16449973  0.96295638  0.51106025    -0.37770
N774        N  0.10561926  0.73824637  0.46570290    -0.37770
C775        C  0.19862888  0.80802218  0.14789230    -0.04440
C776        C  0.15915092  0.79553555  0.15946838    -0.01560
C777        C  0.15361456  0.80540460  0.19064381     0.03430
C778        C  0.18710875  0.83106206  0.20975151    -0.04440
C779        C  0.22635014  0.84533655  0.19781002    -0.01540
C780        C  0.23200333  0.83135385  0.16853920     0.03430
C781        C  0.12356059  0.77319678  0.13968606     0.38080
C782        C  0.26141578  0.87471630  0.21547928     0.38070
C783        C  0.27238996  0.83946410  0.16093559     0.36490
C784        C  0.11310633  0.79038501  0.20262956     0.36500
N785        N  0.30468790  0.84610295  0.15511244    -0.38320
N786        N  0.08084763  0.77829123  0.21227658    -0.38330
N787        N  0.28956220  0.89888961  0.22890146    -0.37770
N788        N  0.09427036  0.75488907  0.12490226    -0.37770
C789        C  0.49945927  0.88333910  0.29216200    -0.04440
C790        C  0.52990385  0.90846199  0.31377458    -0.01560
C791        C  0.56076217  0.89984342  0.32296964     0.03430
C792        C  0.56151626  0.86613231  0.31041926    -0.04440
C793        C  0.52833462  0.83857620  0.29168156    -0.01540
C794        C  0.49777882  0.84752555  0.28220082     0.03430
C795        C  0.53041283  0.94416156  0.32537676     0.38080
C796        C  0.52670252  0.80235626  0.28020195     0.38070
C797        C  0.46562599  0.82097760  0.26074447     0.36490
C798        C  0.59189132  0.92577402  0.34533284     0.36500
N799        N  0.44001326  0.80002583  0.24353503    -0.38320
N800        N  0.61652930  0.94624730  0.36339444    -0.38330
N801        N  0.52458367  0.77310359  0.27093628    -0.37770
N802        N  0.53069177  0.97260315  0.33460484    -0.37770
C803        C  0.36867546  0.88657603  0.28779663    -0.04440
C804        C  0.36413135  0.91139197  0.30975582    -0.01560
C805        C  0.32511006  0.90367118  0.31817807     0.03430
C806        C  0.29020626  0.87118734  0.30442540    -0.04440
C807        C  0.29509810  0.84416125  0.28473783    -0.01540
C808        C  0.33409576  0.85199857  0.27649850     0.03430
C809        C  0.39973331  0.94549929  0.32303345     0.38080
C810        C  0.26032002  0.80980596  0.27067023     0.38070
C811        C  0.33859138  0.82472991  0.25569986     0.36490
C812        C  0.32096600  0.92899597  0.34124991     0.36500
N813        N  0.34169672  0.80251283  0.23932523    -0.38320
N814        N  0.31769204  0.94903406  0.35985557    -0.38330
N815        N  0.23279604  0.78252312  0.25917566    -0.37770
N816        N  0.42824106  0.97260502  0.33365128    -0.37770
C817        C  0.48406061  0.11897242  0.73013296    -0.04440
C818        C  0.47984396  0.14825752  0.74695541    -0.01560
C819        C  0.45152049  0.15969531  0.73663611     0.03430
C820        C  0.42781137  0.14249638  0.70912301    -0.04440
C821        C  0.43536121  0.11690048  0.69039847    -0.01540
C822        C  0.46255548  0.10418471  0.70125324     0.03430
C823        C  0.50366796  0.16602695  0.77545917     0.38080
C824        C  0.41601396  0.10473738  0.65949845     0.38070
C825        C  0.46601986  0.07375066  0.68382930     0.36490
C826        C  0.44555854  0.18769593  0.75535417     0.36500
N827        N  0.46800798  0.04904457  0.66989011    -0.38320
N828        N  0.44148055  0.21024249  0.77055882    -0.38330
N829        N  0.40170571  0.09608755  0.63434254    -0.37770
N830        N  0.52203421  0.18103990  0.79827889    -0.37770
C831        C  0.36507894  0.91544627  0.03478234    -0.04440
C832        C  0.33234011  0.92321063  0.03797794    -0.01560
C833        C  0.29300944  0.89153955  0.04520126     0.03430
C834        C  0.28557441  0.85173411  0.05018391    -0.04440
C835        C  0.31677824  0.84326060  0.04332983    -0.01540
C836        C  0.35532891  0.87445651  0.03368255     0.03430
C837        C  0.33831864  0.96360493  0.03351273     0.38080
C838        C  0.31080389  0.80312157  0.04891263     0.38070
C839        C  0.38451359  0.86375256  0.02259958     0.36490
C840        C  0.26011833  0.90011101  0.04818922     0.36500
N841        N  0.40730428  0.85490006  0.01311915    -0.38320
N842        N  0.23390533  0.90694399  0.05059253    -0.38330
N843        N  0.30709128  0.77153649  0.05376883    -0.37770
N844        N  0.34275279  0.99570211  0.03004487    -0.37770
C845        C  0.57823995  0.85283187  0.05658303    -0.04440
C846        C  0.53958977  0.84500248  0.06542318    -0.01560
C847        C  0.52379460  0.86895953  0.05311032     0.03430
C848        C  0.54662293  0.90118715  0.03145332    -0.04440
C849        C  0.58501890  0.90722354  0.02152256    -0.01540
C850        C  0.60050767  0.88311798  0.03421954     0.03430
C851        C  0.51601523  0.81228415  0.08769322     0.38080
C852        C  0.60979524  0.93821655  0.99856849     0.38070
C853        C  0.63962258  0.88947395  0.02441916     0.36490
C854        C  0.48395242  0.85957374  0.06329015     0.36500
N855        N  0.67070811  0.89445441  0.01655805    -0.38320
N856        N  0.45210835  0.85100989  0.07206929    -0.38330
N857        N  0.63036620  0.96266376  0.98038493    -0.37770
N858        N  0.49709462  0.78655541  0.10562821    -0.37770
C859        C  0.46517211  0.94133438  0.19692220    -0.04440
C860        C  0.49447559  0.98172535  0.19002171    -0.01560
C861        C  0.50150715  0.99615199  0.15806086     0.03430
C862        C  0.47908895  0.97030489  0.13289010    -0.04440
C863        C  0.44987585  0.93000711  0.14001319    -0.01540
C864        C  0.44379969  0.91534438  0.17166954     0.03430
C865        C  0.51696619  0.00848185  0.21584363     0.38080
C866        C  0.42363339  0.90405771  0.11517370     0.38070
C867        C  0.41587688  0.87306937  0.17810247     0.36490
C868        C  0.53166358  0.03753745  0.15105964     0.36500
N869        N  0.39390826  0.83916600  0.18270929    -0.38320
N870        N  0.55576021  0.07056931  0.14544869    -0.38330
N871        N  0.40155790  0.88274121  0.09612595    -0.37770
N872        N  0.53490542  0.02977269  0.23650388    -0.37770
C873        C  0.42478420  0.15145941  0.94777748    -0.04440
C874        C  0.40209486  0.10884785  0.94810205    -0.01560
C875        C  0.41817769  0.08613582  0.96261501     0.03430
C876        C  0.45565666  0.10568408  0.97885744    -0.04440
C877        C  0.47834180  0.14794667  0.97872470    -0.01540
C878        C  0.46391303  0.17074253  0.96205148     0.03430
C879        C  0.36146982  0.08793246  0.93494875     0.38080
C880        C  0.51520540  0.16827740  0.99756722     0.38070
C881        C  0.48985330  0.21411656  0.95987434     0.36490
C882        C  0.39628545  0.04248789  0.96057566     0.36500
N883        N  0.51113930  0.24862602  0.95883020    -0.38320
N884        N  0.37908381  0.00774096  0.95870299    -0.38330
N885        N  0.54411823  0.18531420  0.01302167    -0.37770
N886        N  0.32895200  0.07042316  0.92472157    -0.37770
C887        C  0.51354349  0.05121359  0.82050208    -0.04440
C888        C  0.53062074  0.08031522  0.84454029    -0.01560
C889        C  0.52666513  0.06836453  0.87674876     0.03430
C890        C  0.50548623  0.02693586  0.88527678    -0.04440
C891        C  0.48789194  0.99775051  0.86107895    -0.01540
C892        C  0.49212259  0.00996048  0.82872820     0.03430
C893        C  0.55429790  0.12277015  0.83619156     0.38080
C894        C  0.46532886  0.95519118  0.86933197     0.38070
C895        C  0.47525367  0.98017521  0.80384833     0.36490
C896        C  0.54678387  0.09900981  0.90082113     0.36500
N897        N  0.46195007  0.95642076  0.78397942    -0.38320
N898        N  0.56285872  0.12354271  0.91986560    -0.38330
N899        N  0.44740352  0.92122135  0.87587596    -0.37770
N900        N  0.57390438  0.15673220  0.83018976    -0.37770
C901        C  0.11679153  0.42253551  0.29282403    -0.04440
C902        C  0.11795119  0.43624838  0.26118548    -0.01560
C903        C  0.11130583  0.46864507  0.25447637     0.03430
C904        C  0.09401769  0.48160787  0.27771910    -0.04440
C905        C  0.09044088  0.46619350  0.30935126    -0.01540
C906        C  0.10378155  0.43824899  0.31710833     0.03430
C907        C  0.12019931  0.41383151  0.23472266     0.38080
C908        C  0.07131697  0.47723528  0.33356682     0.38070
C909        C  0.10156076  0.42358147  0.34959425     0.36490
C910        C  0.12264449  0.48856090  0.22344314     0.36500
N911        N  0.09987977  0.41187055  0.37551881    -0.38320
N912        N  0.13178852  0.50449684  0.19877446    -0.38330
N913        N  0.05596724  0.48592475  0.35293492    -0.37770
N914        N  0.11949034  0.39558938  0.21289643    -0.37770
C915        C  0.09030112  0.61186526  0.28729464    -0.04440
C916        C  0.06094307  0.62370082  0.29176564    -0.01560
C917        C  0.07268809  0.66302578  0.30148131     0.03430
C918        C  0.11343541  0.68991247  0.30942186    -0.04440
C919        C  0.14252030  0.67743003  0.30675584    -0.01540
C920        C  0.13122486  0.63898478  0.29491438     0.03430
C921        C  0.01844311  0.59546336  0.28611878     0.38080
C922        C  0.18411070  0.70398283  0.31646908     0.38070
C923        C  0.16215345  0.62827126  0.28932297     0.36490
C924        C  0.04323208  0.67665753  0.30082144     0.36500
N925        N  0.18687476  0.61978462  0.28489837    -0.38320
N926        N  0.01980447  0.68758712  0.29957317    -0.38330
N927        N  0.21722522  0.72507592  0.32434679    -0.37770
N928        N  0.98457533  0.57300031  0.28159998    -0.37770
C929        C  0.86006048  0.57589802  0.71248260    -0.04440
C930        C  0.87596930  0.56277228  0.68830209    -0.01560
C931        C  0.88682331  0.53263040  0.69503671     0.03430
C932        C  0.87932122  0.51347873  0.72546874    -0.04440
C933        C  0.85975844  0.52417620  0.74839083    -0.01540
C934        C  0.85402107  0.55752269  0.74297951     0.03430
C935        C  0.88399637  0.58246773  0.65725032     0.38080
C936        C  0.84644021  0.50160284  0.77824706     0.38070
C937        C  0.84906184  0.57674137  0.77041792     0.36490
C938        C  0.90775323  0.52316497  0.67128230     0.36500
N939        N  0.84793069  0.59209580  0.79345017    -0.38320
N940        N  0.92458591  0.51568110  0.65235461    -0.38330
N941        N  0.83578083  0.48358147  0.80198719    -0.37770
N942        N  0.89048837  0.59833664  0.63251021    -0.37770
C943        C  0.10385597  0.46680929  0.03117565    -0.04440
C944        C  0.11539806  0.47346929  0.06367991    -0.01560
C945        C  0.14341951  0.46298143  0.07658648     0.03430
C946        C  0.15821129  0.44294182  0.05784951    -0.04440
C947        C  0.14630293  0.43558014  0.02548582    -0.01540
C948        C  0.12017928  0.44840008  0.01200802     0.03430
C949        C  0.09668016  0.48835969  0.08503500     0.38080
C950        C  0.15971579  0.41356155  0.00615643     0.38070
C951        C  0.11063599  0.44296945  0.97818689     0.36490
C952        C  0.15696227  0.47316833  0.10940471     0.36500
N953        N  0.10310091  0.43866955  0.95121471    -0.38320
N954        N  0.16711028  0.48133643  0.13563788    -0.38330
N955        N  0.17009197  0.39589964  0.99053147    -0.37770
N956        N  0.08240053  0.49926150  0.10356750    -0.37770
C957        C  0.03739421  0.52885870  0.19043559    -0.04440
C958        C  0.99833540  0.50067900  0.17956147    -0.01560
C959        C  0.98841375  0.49896102  0.14676297     0.03430
C960        C  0.01755783  0.52541678  0.12474467    -0.04440
C961        C  0.05642286  0.55392400  0.13582035    -0.01540
C962        C  0.06649105  0.55522747  0.16837732     0.03430
C963        C  0.96829199  0.47391902  0.20219530     0.38080
C964        C  0.08628796  0.58238355  0.11385144     0.38070
C965        C  0.10725421  0.58335706  0.17911486     0.36490
C966        C  0.94842616  0.46963000  0.13560502     0.36500
N967        N  0.13968801  0.60572769  0.18774533    -0.38320
N968        N  0.91651568  0.44622205  0.12667530    -0.38330
N969        N  0.11081409  0.60528838  0.09688715    -0.37770
N970        N  0.94437011  0.45261426  0.22032881    -0.37770
C971        C  0.15418683  0.71663123  0.05203807    -0.04440
C972        C  0.11517876  0.71164714  0.04754367    -0.01560
C973        C  0.08228882  0.67408430  0.03824725     0.03430
C974        C  0.08807581  0.64074611  0.03171748    -0.04440
C975        C  0.12867529  0.64830138  0.03138376    -0.01540
C976        C  0.16109998  0.68542885  0.04239148     0.03430
C977        C  0.10912059  0.74591817  0.05170994     0.38080
C978        C  0.13774546  0.61786566  0.02066391     0.38070
C979        C  0.20140020  0.69071768  0.04478456     0.36490
C980        C  0.04259768  0.67054448  0.03566348     0.36500
N981        N  0.23324374  0.69404500  0.04644919    -0.38320
N982        N  0.01103974  0.66796725  0.03394127    -0.38330
N983        N  0.14550260  0.59400036  0.01194962    -0.37770
N984        N  0.10447873  0.77342183  0.05453350    -0.37770
C985        C  0.83171682  0.56940709  0.95101347    -0.04440
C986        C  0.84238577  0.54636950  0.93172717    -0.01560
C987        C  0.87060842  0.53514462  0.94275282     0.03430
C988        C  0.88728593  0.54523847  0.97381439    -0.04440
C989        C  0.87468788  0.56624900  0.99383405    -0.01540
C990        C  0.84784871  0.57911835  0.98218096     0.03430
C991        C  0.82502577  0.53445552  0.90005550     0.38080
C992        C  0.88888911  0.57443029  0.02665230     0.38070
C993        C  0.83871231  0.60426940  0.00177970     0.36490
C994        C  0.88382304  0.51522336  0.92098531     0.36500
N995        N  0.83215046  0.62472120  0.01757502    -0.38320
N996        N  0.89374360  0.49967794  0.90278913    -0.38330
N997        N  0.90011163  0.58091511  0.05283129    -0.37770
N998        N  0.81233473  0.52450976  0.87458206    -0.37770
C999        C  0.94334326  0.47104219  0.81115399    -0.04440
C1000       C  0.98279787  0.50067168  0.82022969    -0.01560
C1001       C  0.99496507  0.50519507  0.85277672     0.03430
C1002       C  0.96767823  0.48028346  0.87653986    -0.04440
C1003       C  0.92856552  0.45017020  0.86716471    -0.01540
C1004       C  0.91633837  0.44589882  0.83485084     0.03430
C1005       C  0.01098142  0.52609136  0.79599540     0.38080
C1006       C  0.90075675  0.42244561  0.89050735     0.38070
C1007       C  0.87542475  0.41584455  0.82599969     0.36490
C1008       C  0.03544260  0.53571680  0.86185625     0.36500
N1009       N  0.84285926  0.39195241  0.81885266    -0.38320
N1010       N  0.06777337  0.56004810  0.86912999    -0.38330
N1011       N  0.87750568  0.39956311  0.90822469    -0.37770
N1012       N  0.03346456  0.54629428  0.77658959    -0.37770
C1013       C  0.75385589  0.98942746  0.36929709    -0.04440
C1014       C  0.78839489  0.99892773  0.38859954    -0.01560
C1015       C  0.81158413  0.03773911  0.40094645     0.03430
C1016       C  0.80257318  0.06836018  0.39242293    -0.04440
C1017       C  0.77076207  0.06051715  0.37116500    -0.01540
C1018       C  0.74627024  0.02128133  0.35957593     0.03430
C1019       C  0.80152184  0.96966787  0.39524181     0.38080
C1020       C  0.76332353  0.09299867  0.36128146     0.38070
C1021       C  0.71412248  0.01488334  0.33716517     0.36490
C1022       C  0.84441610  0.04592951  0.42320479     0.36500
N1023       N  0.68884908  0.01027900  0.31909536    -0.38320
N1024       N  0.86995943  0.05197733  0.44142763    -0.38330
N1025       N  0.75744637  0.11888907  0.35331009    -0.37770
N1026       N  0.81262205  0.94683229  0.40044811    -0.37770
C1027       C  0.93579133  0.19017564  0.39449283    -0.04440
C1028       C  0.94873042  0.23090431  0.38679722    -0.01560
C1029       C  0.98581524  0.25464869  0.37139140     0.03430
C1030       C  0.00970315  0.23747675  0.36308695    -0.04440
C1031       C  0.99626878  0.19652010  0.36997461    -0.01540
C1032       C  0.95954722  0.17296608  0.38579248     0.03430
C1033       C  0.92309624  0.24794013  0.39347834     0.38080
C1034       C  0.01993838  0.17836809  0.36020636     0.38070
C1035       C  0.94640951  0.13094509  0.39275341     0.36490
C1036       C  0.99969933  0.29694598  0.36472463     0.36500
N1037       N  0.93686851  0.09748943  0.39760846    -0.38320
N1038       N  0.01067708  0.33065411  0.35942454    -0.38330
N1039       N  0.03883313  0.16395248  0.35242778    -0.37770
N1040       N  0.90256292  0.26153359  0.39842498    -0.37770
C1041       C  0.71114984  0.15652841  0.95393228    -0.04440
C1042       C  0.68219315  0.16467223  0.96745487    -0.01560
C1043       C  0.64334749  0.13267707  0.97630480     0.03430
C1044       C  0.63060125  0.09204172  0.96830173    -0.04440
C1045       C  0.65987575  0.08468409  0.95376840    -0.01540
C1046       C  0.70021808  0.11574013  0.95007680     0.03430
C1047       C  0.69138266  0.20590365  0.97157302     0.38080
C1048       C  0.64904726  0.04631046  0.93957085     0.38070
C1049       C  0.73075966  0.10494068  0.94312408     0.36490
C1050       C  0.61667768  0.14235364  0.99324703     0.36500
N1051       N  0.75442604  0.09522423  0.93820346    -0.38320
N1052       N  0.59572798  0.15019270  0.00720831    -0.38330
N1053       N  0.64091069  0.01654720  0.92702277    -0.37770
N1054       N  0.69793665  0.23853574  0.97516482    -0.37770
C1055       C  0.84364575  0.29156448  0.96239782    -0.04440
C1056       C  0.83461474  0.32310088  0.96472036    -0.01560
C1057       C  0.86480077  0.36209563  0.97422607     0.03430
C1058       C  0.90551870  0.37102740  0.97857737    -0.04440
C1059       C  0.91307234  0.33805005  0.98002362    -0.01540
C1060       C  0.88241522  0.29880149  0.97187368     0.03430
C1061       C  0.79544902  0.31674478  0.95413631     0.38080
C1062       C  0.95240883  0.34409990  0.98993941     0.38070
C1063       C  0.89128037  0.26595962  0.97181835     0.36490
C1064       C  0.85375067  0.39310243  0.97771323     0.36500
N1065       N  0.89831338  0.23975369  0.97164799    -0.38320
N1066       N  0.84448326  0.41750949  0.98047541    -0.38330
N1067       N  0.98373912  0.34883042  0.99784668    -0.37770
N1068       N  0.76464108  0.31239977  0.94515578    -0.37770
C1069       C  0.87359765  0.30670868  0.69902154    -0.04440
C1070       C  0.91350322  0.34032905  0.69807770    -0.01560
C1071       C  0.92093494  0.37935676  0.70535661     0.03430
C1072       C  0.88910020  0.38566397  0.71434276    -0.04440
C1073       C  0.84900052  0.35371130  0.71130280    -0.01540
C1074       C  0.84113093  0.31470829  0.70269215     0.03430
C1075       C  0.94780025  0.33524449  0.69103406     0.38080
C1076       C  0.81587006  0.36003782  0.71976649     0.38070
C1077       C  0.79951455  0.28247359  0.70090537     0.36490
C1078       C  0.96189958  0.41315330  0.70477435     0.36500
N1079       N  0.76615897  0.25705826  0.69964800    -0.38320
N1080       N  0.99451466  0.44010782  0.70429639    -0.38330
N1081       N  0.78949325  0.36509495  0.72668140    -0.37770
N1082       N  0.97573891  0.33186965  0.68616568    -0.37770
C1083       C  0.68612468  0.12817322  0.70678313    -0.04440
C1084       C  0.65173475  0.11001518  0.68650338    -0.01560
C1085       C  0.61300042  0.09773111  0.69852886     0.03430
C1086       C  0.60839603  0.10498890  0.73061046    -0.04440
C1087       C  0.64299075  0.12391066  0.75064115    -0.01540
C1088       C  0.68135742  0.13450185  0.73900183     0.03430
C1089       C  0.65611329  0.10459080  0.65298485     0.38080
C1090       C  0.63979481  0.13284207  0.78351934     0.38070
C1091       C  0.71524242  0.14991096  0.76115708     0.36490
C1092       C  0.57790501  0.07632910  0.67798946     0.36500
N1093       N  0.74082503  0.16156011  0.78012052    -0.38320
N1094       N  0.55031637  0.05910353  0.66124215    -0.38330
N1095       N  0.63857022  0.13997677  0.80995401    -0.37770
N1096       N  0.65957717  0.10032892  0.62625702    -0.37770
C1097       C  0.81191200  0.20892471  0.86467671    -0.04440
C1098       C  0.82105172  0.17833450  0.85733667    -0.01560
C1099       C  0.83009501  0.17370065  0.82567400     0.03430
C1100       C  0.83246132  0.20105759  0.80150047    -0.04440
C1101       C  0.82655455  0.23348139  0.80952337    -0.01540
C1102       C  0.81502222  0.23663475  0.84054258     0.03430
C1103       C  0.82412912  0.15348109  0.88258581     0.38080
C1104       C  0.83480479  0.26540476  0.78665327     0.38070
C1105       C  0.80661040  0.26878140  0.84765823     0.36490
C1106       C  0.83725586  0.14097820  0.81796944     0.36500
N1107       N  0.80001325  0.29445114  0.85335497    -0.38320
N1108       N  0.84292106  0.11484835  0.81173825    -0.38330
N1109       N  0.84223624  0.29248850  0.76982950    -0.37770
N1110       N  0.82804114  0.13409316  0.90242935    -0.37770
C1111       C  0.97948864  0.21483362  0.65085722    -0.04440
C1112       C  0.99360276  0.18696448  0.65316532    -0.01560
C1113       C  0.03131525  0.19673563  0.64029123     0.03430
C1114       C  0.05599999  0.23529684  0.62635770    -0.04440
C1115       C  0.04283594  0.26413537  0.62649174    -0.01540
C1116       C  0.00380672  0.25303019  0.63673454     0.03430
C1117       C  0.96910646  0.14801567  0.66855244     0.38080
C1118       C  0.06930030  0.30538344  0.61585132     0.38070
C1119       C  0.98721384  0.27936087  0.62959994     0.36490
C1120       C  0.04367410  0.16642295  0.64072120     0.36500
N1121       N  0.97373645  0.29987190  0.62280745    -0.38320
N1122       N  0.05310640  0.14189878  0.64158582    -0.38330
N1123       N  0.09033925  0.33821376  0.60731760    -0.37770
N1124       N  0.94955954  0.11698025  0.68083327    -0.37770
C1125       C  0.79820076  0.04015278  0.64706250    -0.04440
C1126       C  0.76437201  0.00478435  0.65895493    -0.01560
C1127       C  0.75554301  0.96624195  0.64842987     0.03430
C1128       C  0.78022673  0.96240499  0.62578503    -0.04440
C1129       C  0.81557079  0.99731155  0.61556962    -0.01540
C1130       C  0.82475705  0.03591210  0.62630479     0.03430
C1131       C  0.73823249  0.00807641  0.68182385     0.38080
C1132       C  0.84135460  0.99365513  0.59253100     0.38070
C1133       C  0.85972442  0.07138853  0.61359928     0.36490
C1134       C  0.72034009  0.93037506  0.66026978     0.36500
N1135       N  0.88753627  0.09957985  0.60325633    -0.38320
N1136       N  0.69233459  0.90162812  0.66968951    -0.38330
N1137       N  0.86179840  0.99066022  0.57407450    -0.37770
N1138       N  0.71742623  0.01074998  0.70011217    -0.37770
C1139       C  0.83118164  0.15180367  0.55552820    -0.04440
C1140       C  0.85210633  0.18769093  0.53747636    -0.01560
C1141       C  0.85702662  0.18612235  0.50436315     0.03430
C1142       C  0.84366001  0.14855563  0.48946483    -0.04440
C1143       C  0.82367359  0.11263698  0.50828268    -0.01540
C1144       C  0.81589402  0.11434951  0.54062396     0.03430
C1145       C  0.86722419  0.22622897  0.55282537     0.38080
C1146       C  0.81115916  0.07338866  0.49505201     0.38070
C1147       C  0.79157365  0.07716942  0.55846185     0.36490
C1148       C  0.87415919  0.22321130  0.48567449     0.36500
N1149       N  0.77146064  0.04725569  0.57203939    -0.38320
N1150       N  0.88778008  0.25305159  0.47107358    -0.38330
N1151       N  0.80008056  0.04167987  0.48491636    -0.37770
N1152       N  0.87933773  0.25694047  0.56512736    -0.37770
loop_ 
_geom_bond_atom_site_label_1 
_geom_bond_atom_site_label_2 
_geom_bond_distance 
_geom_bond_site_symmetry_2 
_ccdc_geom_bond_type 
O1           Ni7   1.932       .  S
O1           C22   1.273       .  A
O2          Ni25   1.903       .  S
O2           C11   1.271       .  A
O3           Ni7   1.910       .  S
O3          Ni25   1.903       .  S
O3          Ni19   1.922       .  S
O3           H26   0.966       .  S
C4           O21   1.280       .  A
C4           O13   1.279       .  A
C4         C1139   1.477       .  S
O5          Ni24   1.927       .  S
O5           C11   1.274       .  A
O6          Ni24   1.912       .  S
O6            C8   1.270       .  A
Ni7          O10   1.932       .  S
Ni7          O12   1.911       .  S
C8           O18   1.277       .  A
C8         C1125   1.506       .  S
O9          Ni25   1.923       .  S
O9           C15   1.276       .  A
O10          C15   1.276       .  A
C11        C1083   1.484       .  S
O12          C14   1.271       .  A
O13         Ni24   1.921       .  S
C14          O20   1.277       .  A
C14        C1069   1.518       .  S
C15        C1100   1.491       .  S
H16          O17   0.966       .  S
O17         Ni25   1.905       .  S
O17         Ni19   1.886       .  S
O17         Ni24   1.893       .  S
O18         Ni19   1.948       .  S
Ni19         O23   1.897       .  S
Ni19         O21   1.923       .  S
O20         Ni25   1.947       .  S
C22          O23   1.266       .  A
C22        C1111   1.476       .  S
C27        C1055   1.502       .  S
C27          C28   1.415       .  A
C27          C32   1.403       .  A
C28          C29   1.419       .  A
C28          H33   1.082       .  S
C29        C1041   1.519       .  S
C29          C30   1.416       .  A
C30          C31   1.403       .  A
C30          H34   1.084       .  S
C31        C1097   1.497       .  S
C31          C32   1.399       .  A
C32          H35   1.084       .  S
C36        C1016   1.472       .  S
C36          C37   1.396       .  A
C36          C41   1.391       .  A
C37          C38   1.406       .  A
C37          H42   1.083       .  S
C38        C1142   1.503       .  S
C38          C39   1.411       .  A
C39          C40   1.406       .  A
C39          H43   1.083       .  S
C40        C1027   1.480       .  S
C40          C41   1.395       .  A
C41          H44   1.085       .  S
O45         Ni51   1.934       .  S
O45          C66   1.275   1_556  A
O46         Ni69   1.906       .  S
O46          C55   1.272       .  A
O47         Ni51   1.901       .  S
O47         Ni69   1.899   1_455  S
O47         Ni63   1.921   1_556  S
O47          H70   0.966       .  S
C48          O65   1.281       .  A
C48          O57   1.277   1_455  A
C48         C960   1.484       .  S
O49         Ni68   1.925       .  S
O49          C55   1.274   1_554  A
O50         Ni68   1.915   1_455  S
O50          C52   1.270       .  A
Ni51         O54   1.935       .  S
Ni51         O56   1.913   1_455  S
C52          O62   1.279       .  A
C52         C974   1.528       .  S
O53         Ni69   1.936       .  S
O53          C59   1.281       .  A
O54          C59   1.278   1_455  A
C55         C988   1.489       .  S
O56          C58   1.271       .  A
O57         Ni68   1.923       .  S
C58          O64   1.276       .  A
C58        C1058   1.518       .  S
C59        C1002   1.497       .  S
H60          O61   0.966       .  S
O61         Ni69   1.912   1_554  S
O61         Ni63   1.885   1_655  S
O61         Ni68   1.890       .  S
O62         Ni63   1.951       .  S
Ni63         O67   1.908       .  S
Ni63         O65   1.929       .  S
O64         Ni69   1.946       .  S
C66          O67   1.271       .  A
C66         C943   1.493       .  S
C71        C1072   1.501       .  S
C71          C72   1.408       .  A
C71          C76   1.412       .  A
C72          C73   1.402       .  A
C72          H77   1.084       .  S
C73         C999   1.497       .  S
C73          C74   1.399       .  A
C74          C75   1.412       .  A
C74          H78   1.084       .  S
C75         C932   1.507       .  S
C75          C76   1.413       .  A
C76          H79   1.083       .  S
C80         C915   1.491       .  S
C80          C81   1.409       .  A
C80          C85   1.402       .  A
C81          C82   1.409       .  A
C81          H86   1.082       .  S
C82         C904   1.503       .  S
C82          C83   1.411       .  A
C83          C84   1.397       .  A
C83          H87   1.084       .  S
C84         C957   1.487       .  S
C84          C85   1.395       .  A
C85          H88   1.085       .  S
O89         Ni95   1.933       .  S
O89         C110   1.273   1_554  A
O90        Ni113   1.911       .  S
O90          C99   1.274       .  A
O91         Ni95   1.905       .  S
O91        Ni113   1.904   1_545  S
O91        Ni107   1.916   1_554  S
O91         H114   0.966       .  S
C92         O109   1.279       .  A
C92         O101   1.277   1_545  A
C92         C890   1.483       .  S
O93        Ni112   1.911       .  S
O93          C99   1.268   1_556  A
O94        Ni112   1.904   1_545  S
O94          C96   1.266       .  A
Ni95         O98   1.931       .  S
Ni95        O100   1.910   1_545  S
C96         O106   1.280       .  A
C96        C1044   1.532       .  S
O97        Ni113   1.925       .  S
O97         C103   1.278       .  A
O98         C103   1.277   1_545  A
C99         C848   1.503       .  S
O100        C102   1.270       .  A
O101       Ni112   1.914       .  S
C102        O108   1.279       .  A
C102        C831   1.524       .  S
C103        C862   1.488       .  S
H104        O105   0.966       .  S
O105       Ni113   1.905   1_556  S
O105       Ni107   1.877   1_565  S
O105       Ni112   1.880       .  S
O106       Ni107   1.958       .  S
Ni107       O111   1.892       .  S
Ni107       O109   1.917       .  S
O108       Ni113   1.953       .  S
C110        O111   1.265       .  A
C110        C876   1.471       .  S
C115       C1086   1.490       .  S
C115        C116   1.404       .  A
C115        C120   1.406       .  A
C116        C117   1.397       .  A
C116        H121   1.084       .  S
C117        C887   1.477       .  S
C117        C118   1.396       .  A
C118        C119   1.401       .  A
C118        H122   1.084       .  S
C119        C817   1.483       .  S
C119        C120   1.403       .  A
C120        H123   1.084       .  S
C124        C803   1.493       .  S
C124        C125   1.406       .  A
C124        C129   1.407       .  A
C125        C126   1.407       .  A
C125        H130   1.083       .  S
C126        C789   1.487       .  S
C126        C127   1.404       .  A
C127        C128   1.400       .  A
C127        H131   1.084       .  S
C128        C859   1.491       .  S
C128        C129   1.405       .  A
C129        H132   1.084       .  S
O133       Ni139   1.937       .  S
O133        C154   1.277       .  A
O134       Ni157   1.902       .  S
O134        C143   1.267       .  A
O135       Ni139   1.905       .  S
O135       Ni157   1.902       .  S
O135       Ni151   1.920       .  S
O135        H158   0.966       .  S
C136        O153   1.280       .  A
C136        O145   1.274       .  A
C136        C761   1.509       .  S
O137       Ni156   1.926       .  S
O137        C143   1.272       .  A
O138       Ni156   1.914       .  S
O138        C140   1.271       .  A
Ni139       O142   1.943       .  S
Ni139       O144   1.915       .  S
C140        O150   1.280       .  A
C140        C750   1.522       .  S
O141       Ni157   1.916       .  S
O141        C147   1.276       .  A
O142        C147   1.279       .  A
C143        C918   1.482       .  S
O144        C146   1.271       .  A
O145       Ni156   1.912       .  S
C146        O152   1.273       .  A
C146        C806   1.502       .  S
C147        C778   1.498       .  S
H148        O149   0.966       .  S
O149       Ni157   1.904       .  S
O149       Ni151   1.893       .  S
O149       Ni156   1.888       .  S
O150       Ni151   1.952       .  S
Ni151       O155   1.906       .  S
Ni151       O153   1.935       .  S
O152       Ni157   1.935       .  S
C154        O155   1.272       .  A
C154        C733   1.514       .  S
C159        C834   1.509       .  S
C159        C160   1.407       .  A
C159        C164   1.412       .  A
C160        C161   1.411       .  A
C160        H165   1.082       .  S
C161        C775   1.524       .  S
C161        C162   1.413       .  A
C162        C163   1.413       .  A
C162        H166   1.081       .  S
C163        C971   1.508       .  S
C163        C164   1.412       .  A
C164        H167   1.083       .  S
C168        C719   1.472       .  S
C168        C169   1.397       .  A
C168        C173   1.395       .  A
C169        C170   1.404       .  A
C169        H174   1.084       .  S
C170        C764   1.502       .  S
C170        C171   1.406       .  A
C171        C172   1.409       .  A
C171        H175   1.081       .  S
C172        C705   1.495       .  S
C172        C173   1.399       .  A
C173        H176   1.083       .  S
O177       Ni183   1.943       .  S
O177        C198   1.275       .  A
O178       Ni201   1.886       .  S
O178        C187   1.264       .  A
O179       Ni183   1.917       .  S
O179       Ni201   1.900       .  S
O179       Ni195   1.914       .  S
O179        H202   0.966       .  S
C180        O197   1.272       .  A
C180        O189   1.274       .  A
C180        C663   1.487       .  S
O181       Ni200   1.926       .  S
O181        C187   1.270       .  A
O182       Ni200   1.906       .  S
O182        C184   1.268       .  A
Ni183       O186   1.941       .  S
Ni183       O188   1.910       .  S
C184        O194   1.282       .  A
C184        C929   1.495       .  S
O185       Ni201   1.917       .  S
O185        C191   1.274       .  A
O186        C191   1.280       .  A
C187        C722   1.478       .  S
O188        C190   1.268       .  A
O189       Ni200   1.923       .  S
C190        O196   1.275       .  A
C190        C677   1.491       .  S
C191        C691   1.518       .  S
H192        O193   0.967       .  S
O193       Ni201   1.908       .  S
O193       Ni195   1.899       .  S
O193       Ni200   1.917       .  S
O194       Ni195   1.962       .  S
Ni195       O199   1.906       .  S
Ni195       O197   1.906       .  S
O196       Ni201   1.945       .  S
C198        O199   1.271       .  A
C198        C649   1.495       .  S
C203        C635   1.497       .  S
C203        C204   1.408       .  A
C203        C208   1.408       .  A
C204        C205   1.406       .  A
C204        H209   1.084       .  S
C205        C985   1.487       .  S
C205        C206   1.401       .  A
C206        C207   1.395       .  A
C206        H210   1.084       .  S
C207        C666   1.481       .  S
C207        C208   1.400       .  A
C208        H211   1.084       .  S
C212        C621   1.502       .  S
C212        C213   1.414       .  A
C212        C217   1.408       .  A
C213        C214   1.415       .  A
C213        H218   1.083       .  S
C214        C747   1.509       .  S
C214        C215   1.409       .  A
C215        C216   1.403       .  A
C215        H219   1.084       .  S
C216        C694   1.500       .  S
C216        C217   1.402       .  A
C217        H220   1.084       .  S
O221       Ni227   1.931       .  S
O221        C242   1.270       .  A
O222       Ni245   1.911       .  S
O222        C231   1.271       .  A
O223       Ni227   1.916       .  S
O223       Ni245   1.901       .  S
O223       Ni239   1.905       .  S
O223        H246   0.966       .  S
C224        O241   1.272       .  A
C224        O233   1.277       .  A
C224        C582   1.495       .  S
O225       Ni244   1.926       .  S
O225        C231   1.270       .  A
O226       Ni244   1.898       .  S
O226        C228   1.265       .  A
Ni227       O230   1.926       .  S
Ni227       O232   1.898       .  S
C228        O238   1.274       .  A
C228        C568   1.480       .  S
O229       Ni245   1.900       .  S
O229        C235   1.272       .  A
O230        C235   1.276       .  A
C231        C607   1.491       .  S
O232        C234   1.266       .  A
O233       Ni244   1.924       .  S
C234        O240   1.279       .  A
C234        C901   1.483       .  S
C235        C596   1.484       .  S
H236        O237   0.966       .  S
O237       Ni245   1.907       .  S
O237       Ni239   1.899       .  S
O237       Ni244   1.911       .  S
O238       Ni239   1.940       .  S
Ni239       O243   1.887       .  S
Ni239       O241   1.909       .  S
O240       Ni245   1.949       .  S
C242        O243   1.262       .  A
C242       C1030   1.473       .  S
C247        C554   1.479       .  S
C247        C248   1.402       .  A
C247        C252   1.400       .  A
C248        C249   1.405       .  A
C248        H253   1.084       .  S
C249        C946   1.491       .  S
C249        C250   1.406       .  A
C250        C251   1.399       .  A
C250        H254   1.084       .  S
C251        C593   1.479       .  S
C251        C252   1.397       .  A
C252        H255   1.084       .  S
C256        C537   1.486       .  S
C256        C257   1.404       .  A
C256        C261   1.406       .  A
C257        C258   1.399       .  A
C257        H262   1.084       .  S
C258        C579   1.480       .  S
C258        C259   1.392       .  A
C259        C260   1.402       .  A
C259        H263   1.084       .  S
C260       C1114   1.493       .  S
C260        C261   1.409       .  A
C261        H264   1.083       .  S
O265       Ni271   1.954       .  S
O265        C286   1.279       .  A
O266       Ni289   1.907       .  S
O266        C275   1.269       .  A
O267       Ni271   1.903       .  S
O267       Ni289   1.903       .  S
O267       Ni283   1.913       .  S
O267        H290   0.965       .  S
C268        O285   1.276       .  A
C268        O277   1.272       .  A
C268        C509   1.467       .  S
O269       Ni288   1.905       .  S
O269        C275   1.262       .  A
O270       Ni288   1.905       .  S
O270        C272   1.267       .  A
Ni271       O274   1.958       .  S
Ni271       O276   1.906       .  S
C272        O282   1.272       .  A
C272        C792   1.495       .  S
O273       Ni289   1.904       .  S
O273        C279   1.272       .  A
O274        C279   1.284       .  A
C275       C1013   1.499       .  S
O276        C278   1.268       .  A
O277       Ni288   1.906       .  S
C278        O284   1.278       .  A
C278        C624   1.496       .  S
C279        C523   1.523       .  S
H280        O281   0.968       .  S
O281       Ni289   1.902       .  S
O281       Ni283   1.893       .  S
O281       Ni288   1.905       .  S
O282       Ni283   1.939       .  S
Ni283       O287   1.899       .  S
Ni283       O285   1.916       .  S
O284       Ni289   1.951       .  S
C286        O287   1.266       .  A
C286        C495   1.508       .  S
C291        C845   1.468       .  S
C291        C292   1.395       .  A
C291        C296   1.390       .  A
C292        C293   1.402       .  A
C292        H297   1.084       .  S
C293        C512   1.491       .  S
C293        C294   1.406       .  A
C294        C295   1.404       .  A
C294        H298   1.084       .  S
C295        C481   1.476       .  S
C295        C296   1.396       .  A
C296        H299   1.084       .  S
C300        C680   1.508       .  S
C300        C301   1.413       .  A
C300        C305   1.408       .  A
C301        C302   1.411       .  A
C301        H306   1.083       .  S
C302       C1128   1.502       .  S
C302        C303   1.409       .  A
C303        C304   1.411       .  A
C303        H307   1.083       .  S
C304        C526   1.511       .  S
C304        C305   1.402       .  A
C305        H308   1.083       .  S
O309       Ni315   1.921       .  S
O309        C330   1.268       .  A
O310       Ni333   1.888       .  S
O310        C319   1.261       .  A
O311       Ni315   1.903       .  S
O311       Ni333   1.888       .  S
O311       Ni327   1.896       .  S
O311        H334   0.966       .  S
C312        O329   1.272       .  A
C312        O321   1.275       .  A
C312        C467   1.516       .  S
O313       Ni332   1.938       .  S
O313        C319   1.272       .  A
O314       Ni332   1.897       .  S
O314        C316   1.267       .  A
Ni315       O318   1.927       .  S
Ni315       O320   1.896       .  S
C316        O326   1.278       .  A
C316        C540   1.508       .  S
O317       Ni333   1.908       .  S
O317        C323   1.275       .  A
O318        C323   1.278       .  A
C319        C453   1.476       .  S
O320        C322   1.264       .  A
O321       Ni332   1.926       .  S
C322        O328   1.268       .  A
C322        C820   1.477       .  S
C323        C439   1.501       .  S
H324        O325   0.966       .  S
O325       Ni333   1.915       .  S
O325       Ni327   1.905       .  S
O325       Ni332   1.911       .  S
O326       Ni327   1.943       .  S
Ni327       O331   1.904       .  S
Ni327       O329   1.911       .  S
O328       Ni333   1.927       .  S
C330        O331   1.269       .  A
C330        C708   1.470       .  S
C335        C873   1.493       .  S
C335        C336   1.409       .  A
C335        C340   1.401       .  A
C336        C337   1.408       .  A
C336        H341   1.083       .  S
C337        C442   1.486       .  S
C337        C338   1.398       .  A
C338        C339   1.393       .  A
C338        H342   1.084       .  S
C339        C425   1.469       .  S
C339        C340   1.391       .  A
C340        H343   1.084       .  S
C344        C565   1.496       .  S
C344        C345   1.405       .  A
C344        C349   1.410       .  A
C345        C346   1.403       .  A
C345        H350   1.083       .  S
C346        C736   1.482       .  S
C346        C347   1.400       .  A
C347        C348   1.400       .  A
C347        H351   1.084       .  S
C348        C470   1.494       .  S
C348        C349   1.401       .  A
C349        H352   1.084       .  S
O353       Ni359   1.923   1_554  S
O353        C374   1.270       .  A
O354       Ni377   1.905       .  S
O354        C363   1.268       .  A
O355       Ni359   1.896       .  S
O355       Ni377   1.893       .  S
O355       Ni371   1.917   1_556  S
O355        H378   0.966       .  S
C356        O373   1.280       .  A
C356        O365   1.276       .  A
C356        C397   1.487       .  S
O357       Ni376   1.907       .  S
O357        C363   1.262   1_554  A
O358       Ni376   1.896       .  S
O358        C360   1.264       .  A
Ni359       O362   1.929       .  S
Ni359       O364   1.896       .  S
C360        O370   1.267       .  A
C360        C551   1.475       .  S
O361       Ni377   1.923       .  S
O361        C367   1.278       .  A
O362        C367   1.277       .  A
C363        C428   1.498       .  S
O364        C366   1.266       .  A
O365       Ni376   1.914       .  S
C366        O372   1.271       .  A
C366        C638   1.470       .  S
C367        C411   1.517       .  S
H368        O369   0.966       .  S
O369       Ni377   1.909   1_554  S
O369       Ni371   1.891       .  S
O369       Ni376   1.893       .  S
O370       Ni371   1.918       .  S
Ni371       O375   1.887       .  S
Ni371       O373   1.930       .  S
O372       Ni377   1.927       .  S
C374        O375   1.264       .  A
C374        C484   1.465       .  S
C379        C652   1.508       .  S
C379        C380   1.403       .  A
C379        C384   1.415       .  A
C380        C381   1.398       .  A
C380        H385   1.083       .  S
C381        C456   1.488       .  S
C381        C382   1.399       .  A
C382        C383   1.403       .  A
C382        H386   1.083       .  S
C383        C414   1.508       .  S
C383        C384   1.412       .  A
C384        H387   1.080       .  S
C388        C610   1.490       .  S
C388        C389   1.407       .  A
C388        C393   1.392       .  A
C389        C390   1.414       .  A
C389        H394   1.077       .  S
C390        C400   1.527       .  S
C390        C391   1.418       .  A
C391        C392   1.407       .  A
C391        H395   1.080       .  S
C392        C498   1.488       .  S
C392        C393   1.396       .  A
C393        H396   1.084       .  S
C397        C398   1.411       .  A
C397        C402   1.406       .  A
C398        C399   1.410       .  A
C398        C403   1.458       .  S
C399        C400   1.431       .  A
C399        C406   1.449       .  S
C400        C401   1.428       .  A
C401        C402   1.418       .  A
C401        C404   1.451       .  S
C402        C405   1.450       .  S
C403        N410   1.157       .  T
C404        N409   1.157       .  T
C405        N407   1.157       .  T
C406        N408   1.158       .  T
C411        C412   1.426       .  A
C411        C416   1.420       .  A
C412        C413   1.418       .  A
C412        C417   1.451       .  S
C413        C414   1.415       .  A
C413        C420   1.452       .  S
C414        C415   1.419       .  A
C415        C416   1.409       .  A
C415        C418   1.454       .  S
C416        C419   1.451       .  S
C417        N424   1.158       .  T
C418        N423   1.158       .  T
C419        N421   1.157       .  T
C420        N422   1.157       .  T
C425        C426   1.399       .  A
C425        C430   1.408       .  A
C426        C427   1.406       .  A
C426        C431   1.453       .  S
C427        C428   1.433       .  A
C427        C434   1.453   1_556  S
C428        C429   1.422       .  A
C429        C430   1.405       .  A
C429        C432   1.453       .  S
C430        C433   1.453       .  S
C431        N438   1.157       .  T
C432        N437   1.158       .  T
C433        N435   1.157       .  T
C434        N436   1.158       .  T
C439        C440   1.421       .  A
C439        C444   1.423       .  A
C440        C441   1.407       .  A
C440        C445   1.451       .  S
C441        C442   1.412       .  A
C441        C448   1.452       .  S
C442        C443   1.408       .  A
C443        C444   1.410       .  A
C443        C446   1.451       .  S
C444        C447   1.452       .  S
C445        N452   1.156       .  T
C446        N451   1.157       .  T
C447        N449   1.158       .  T
C448        N450   1.157       .  T
C453        C454   1.411       .  A
C453        C458   1.410       .  A
C454        C455   1.408       .  A
C454        C459   1.452       .  S
C455        C456   1.417       .  A
C455        C462   1.452       .  S
C456        C457   1.414       .  A
C457        C458   1.406       .  A
C457        C460   1.451       .  S
C458        C461   1.450       .  S
C459        N466   1.157       .  T
C460        N465   1.157       .  T
C461        N463   1.157       .  T
C462        N464   1.157       .  T
C467        C468   1.427       .  A
C467        C472   1.428       .  A
C468        C469   1.410       .  A
C468        C473   1.451       .  S
C469        C470   1.411       .  A
C469        C476   1.455       .  S
C470        C471   1.409       .  A
C471        C472   1.416       .  A
C471        C474   1.452       .  S
C472        C475   1.452       .  S
C473        N480   1.156       .  T
C474        N479   1.157       .  T
C475        N477   1.158       .  T
C476        N478   1.157       .  T
C481        C482   1.411       .  A
C481        C486   1.415       .  A
C482        C483   1.405       .  A
C482        C487   1.451       .  S
C483        C484   1.411       .  A
C483        C490   1.451       .  S
C484        C485   1.408       .  A
C485        C486   1.403       .  A
C485        C488   1.454       .  S
C486        C489   1.450       .  S
C487        N494   1.157       .  T
C488        N493   1.157       .  T
C489        N491   1.156       .  T
C490        N492   1.157       .  T
C495        C496   1.422       .  A
C495        C500   1.427       .  A
C496        C497   1.410       .  A
C496        C501   1.452       .  S
C497        C498   1.411       .  A
C497        C504   1.452       .  S
C498        C499   1.405       .  A
C499        C500   1.413       .  A
C499        C502   1.453       .  S
C500        C503   1.448       .  S
C501        N508   1.158       .  T
C502        N507   1.157       .  T
C503        N505   1.156       .  T
C504        N506   1.157       .  T
C509        C510   1.406       .  A
C509        C514   1.406       .  A
C510        C511   1.411       .  A
C510        C515   1.450       .  S
C511        C512   1.419       .  A
C511        C518   1.449       .  S
C512        C513   1.420       .  A
C513        C514   1.401       .  A
C513        C516   1.452       .  S
C514        C517   1.453       .  S
C515        N522   1.157       .  T
C516        N521   1.157       .  T
C517        N519   1.157       .  T
C518        N520   1.157       .  T
C523        C524   1.427       .  A
C523        C528   1.423       .  A
C524        C525   1.413       .  A
C524        C529   1.450       .  S
C525        C526   1.413       .  A
C525        C532   1.452       .  S
C526        C527   1.418       .  A
C527        C528   1.421       .  A
C527        C530   1.451       .  S
C528        C531   1.451       .  S
C529        N536   1.157       .  T
C530        N535   1.157       .  T
C531        N533   1.158       .  T
C532        N534   1.157       .  T
C537        C538   1.405       .  A
C537        C542   1.410       .  A
C538        C539   1.410       .  A
C538        C543   1.453       .  S
C539        C540   1.429       .  A
C539        C546   1.452       .  S
C540        C541   1.423       .  A
C541        C542   1.414       .  A
C541        C544   1.451       .  S
C542        C545   1.451       .  S
C543        N550   1.157       .  T
C544        N549   1.157       .  T
C545        N547   1.157       .  T
C546        N548   1.157       .  T
C551        C552   1.412       .  A
C551        C556   1.411       .  A
C552        C553   1.408       .  A
C552        C557   1.451       .  S
C553        C554   1.411       .  A
C553        C560   1.450       .  S
C554        C555   1.412       .  A
C555        C556   1.407       .  A
C555        C558   1.449       .  S
C556        C559   1.453       .  S
C557        N564   1.157   1_554  T
C558        N563   1.156       .  T
C559        N561   1.157       .  T
C560        N562   1.157       .  T
C565        C566   1.413       .  A
C565        C570   1.418       .  A
C566        C567   1.404       .  A
C566        C571   1.454       .  S
C567        C568   1.410       .  A
C567        C574   1.447       .  S
C568        C569   1.410       .  A
C569        C570   1.416       .  A
C569        C572   1.450       .  S
C570        C573   1.449       .  S
C571        N578   1.157       .  T
C572        N577   1.157       .  T
C573        N575   1.157       .  T
C574        N576   1.155       .  T
C579        C580   1.409       .  A
C579        C584   1.408       .  A
C580        C581   1.410       .  A
C580        C585   1.451       .  S
C581        C582   1.418       .  A
C581        C588   1.451       .  S
C582        C583   1.423       .  A
C583        C584   1.408       .  A
C583        C586   1.449       .  S
C584        C587   1.454       .  S
C585        N592   1.157       .  T
C586        N591   1.156       .  T
C587        N589   1.157       .  T
C588        N590   1.157       .  T
C593        C594   1.409       .  A
C593        C598   1.410       .  A
C594        C595   1.403       .  A
C594        C599   1.451       .  S
C595        C596   1.418       .  A
C595        C602   1.456       .  S
C596        C597   1.415       .  A
C597        C598   1.413       .  A
C597        C600   1.450       .  S
C598        C601   1.450       .  S
C599        N606   1.156       .  T
C600        N605   1.157       .  T
C601        N603   1.157       .  T
C602        N604   1.158       .  T
C607        C608   1.420       .  A
C607        C612   1.410       .  A
C608        C609   1.414       .  A
C608        C613   1.451       .  S
C609        C610   1.413       .  A
C609        C616   1.449       .  S
C610        C611   1.409       .  A
C611        C612   1.400       .  A
C611        C614   1.451       .  S
C612        C615   1.444       .  S
C613        N620   1.157       .  T
C614        N619   1.158       .  T
C615        N617   1.156       .  T
C616        N618   1.157       .  T
C621        C622   1.416       .  A
C621        C626   1.415       .  A
C622        C623   1.415       .  A
C622        C627   1.452       .  S
C623        C624   1.414       .  A
C623        C630   1.450       .  S
C624        C625   1.415       .  A
C625        C626   1.419       .  A
C625        C628   1.450       .  S
C626        C629   1.450       .  S
C627        N634   1.157       .  T
C628        N633   1.157       .  T
C629        N631   1.157       .  T
C630        N632   1.157       .  T
C635        C636   1.419       .  A
C635        C640   1.418       .  A
C636        C637   1.415       .  A
C636        C641   1.448   1_556  S
C637        C638   1.407       .  A
C637        C644   1.450   1_556  S
C638        C639   1.402       .  A
C639        C640   1.403       .  A
C639        C642   1.452       .  S
C640        C643   1.445       .  S
C641        N648   1.157       .  T
C642        N647   1.156       .  T
C643        N645   1.154       .  T
C644        N646   1.157       .  T
C649        C650   1.410       .  A
C649        C654   1.414       .  A
C650        C651   1.407       .  A
C650        C655   1.447       .  S
C651        C652   1.417       .  A
C651        C658   1.448       .  S
C652        C653   1.423       .  A
C653        C654   1.415       .  A
C653        C656   1.452       .  S
C654        C657   1.451       .  S
C655        N662   1.157       .  T
C656        N661   1.157       .  T
C657        N659   1.157       .  T
C658        N660   1.156       .  T
C663        C664   1.416       .  A
C663        C668   1.418       .  A
C664        C665   1.404       .  A
C664        C669   1.455       .  S
C665        C666   1.411       .  A
C665        C672   1.451       .  S
C666        C667   1.408       .  A
C667        C668   1.413       .  A
C667        C670   1.450       .  S
C668        C671   1.450       .  S
C669        N676   1.158       .  T
C670        N675   1.157       .  T
C671        N673   1.157       .  T
C672        N674   1.157       .  T
C677        C678   1.412       .  A
C677        C682   1.412       .  A
C678        C679   1.421       .  A
C678        C683   1.449       .  S
C679        C680   1.420       .  A
C679        C686   1.449       .  S
C680        C681   1.417       .  A
C681        C682   1.409       .  A
C681        C684   1.454       .  S
C682        C685   1.448       .  S
C683        N690   1.157       .  T
C684        N689   1.158       .  T
C685        N687   1.155       .  T
C686        N688   1.157       .  T
C691        C692   1.423       .  A
C691        C696   1.426       .  A
C692        C693   1.418       .  A
C692        C697   1.451       .  S
C693        C694   1.413       .  A
C693        C700   1.451       .  S
C694        C695   1.410       .  A
C695        C696   1.413       .  A
C695        C698   1.454       .  S
C696        C699   1.447       .  S
C697        N704   1.157       .  T
C698        N703   1.157       .  T
C699        N701   1.155       .  T
C700        N702   1.157       .  T
C705        C706   1.415       .  A
C705        C710   1.425       .  A
C706        C707   1.405   1_565  A
C706        C711   1.453       .  S
C707        C708   1.409       .  A
C707        C714   1.447       .  S
C708        C709   1.404       .  A
C709        C710   1.408   1_545  A
C709        C712   1.453       .  S
C710        C713   1.449       .  S
C711        N718   1.157       .  T
C712        N717   1.157       .  T
C713        N715   1.157       .  T
C714        N716   1.156       .  T
C719        C720   1.408       .  A
C719        C724   1.408       .  A
C720        C721   1.403   1_455  A
C720        C725   1.451       .  S
C721        C722   1.415       .  A
C721        C728   1.453       .  S
C722        C723   1.417   1_655  A
C723        C724   1.408       .  A
C723        C726   1.452   1_455  S
C724        C727   1.451       .  S
C725        N732   1.157       .  T
C726        N731   1.158       .  T
C727        N729   1.157       .  T
C728        N730   1.157       .  T
C733        C734   1.431   1_565  A
C733        C738   1.427       .  A
C734        C735   1.410       .  A
C734        C739   1.453       .  S
C735        C736   1.404       .  A
C735        C742   1.454       .  S
C736        C737   1.407       .  A
C737        C738   1.413   1_545  A
C737        C740   1.453       .  S
C738        C741   1.450       .  S
C739        N746   1.158       .  T
C740        N745   1.157       .  T
C741        N743   1.157       .  T
C742        N744   1.157       .  T
C747        C748   1.413       .  A
C747        C752   1.416       .  A
C748        C749   1.415       .  A
C748        C753   1.453       .  S
C749        C750   1.427   1_655  A
C749        C756   1.452   1_655  S
C750        C751   1.422       .  A
C751        C752   1.422   1_455  A
C751        C754   1.448       .  S
C752        C755   1.450       .  S
C753        N760   1.157       .  T
C754        N759   1.157       .  T
C755        N757   1.157       .  T
C756        N758   1.157       .  T
C761        C762   1.426       .  A
C761        C766   1.420       .  A
C762        C763   1.409       .  A
C762        C767   1.453       .  S
C763        C764   1.415       .  A
C763        C770   1.454       .  S
C764        C765   1.417       .  A
C765        C766   1.413       .  A
C765        C768   1.452       .  S
C766        C769   1.450       .  S
C767        N774   1.158       .  T
C768        N773   1.157       .  T
C769        N771   1.157       .  T
C770        N772   1.157       .  T
C775        C776   1.428       .  A
C775        C780   1.425       .  A
C776        C777   1.419       .  A
C776        C781   1.448       .  S
C777        C778   1.410       .  A
C777        C784   1.452       .  S
C778        C779   1.413       .  A
C779        C780   1.414       .  A
C779        C782   1.452       .  S
C780        C783   1.453       .  S
C781        N788   1.157       .  T
C782        N787   1.157       .  T
C783        N785   1.158       .  T
C784        N786   1.157       .  T
C789        C790   1.409       .  A
C789        C794   1.411       .  A
C790        C791   1.413       .  A
C790        C795   1.450       .  S
C791        C792   1.417       .  A
C791        C798   1.450       .  S
C792        C793   1.416       .  A
C793        C794   1.413       .  A
C793        C796   1.448       .  S
C794        C797   1.452       .  S
C795        N802   1.157       .  T
C796        N801   1.156       .  T
C797        N799   1.157       .  T
C798        N800   1.157       .  T
C803        C804   1.411       .  A
C803        C808   1.410       .  A
C804        C805   1.417       .  A
C804        C809   1.450       .  S
C805        C806   1.418       .  A
C805        C812   1.450       .  S
C806        C807   1.422       .  A
C807        C808   1.412       .  A
C807        C810   1.453       .  S
C808        C811   1.451       .  S
C809        N816   1.157       .  T
C810        N815   1.158       .  T
C811        N813   1.157       .  T
C812        N814   1.157       .  T
C817        C818   1.413       .  A
C817        C822   1.411       .  A
C818        C819   1.407       .  A
C818        C823   1.449       .  S
C819        C820   1.409       .  A
C819        C826   1.450       .  S
C820        C821   1.408       .  A
C821        C822   1.408       .  A
C821        C824   1.446       .  S
C822        C825   1.450       .  S
C823        N830   1.156       .  T
C824        N829   1.155       .  T
C825        N827   1.157       .  T
C826        N828   1.156       .  T
C831        C832   1.427       .  A
C831        C836   1.421       .  A
C832        C833   1.418       .  A
C832        C837   1.452       .  S
C833        C834   1.413       .  A
C833        C840   1.452       .  S
C834        C835   1.415       .  A
C835        C836   1.419       .  A
C835        C838   1.448       .  S
C836        C839   1.450       .  S
C837        N844   1.158       .  T
C838        N843   1.156       .  T
C839        N841   1.157       .  T
C840        N842   1.157       .  T
C845        C846   1.407       .  A
C845        C850   1.397       .  A
C846        C847   1.405       .  A
C846        C851   1.453       .  S
C847        C848   1.421       .  A
C847        C854   1.449       .  S
C848        C849   1.434       .  A
C849        C850   1.407       .  A
C849        C852   1.449   1_554  S
C850        C853   1.454       .  S
C851        N858   1.157       .  T
C852        N857   1.156       .  T
C853        N855   1.157       .  T
C854        N856   1.156       .  T
C859        C860   1.414       .  A
C859        C864   1.409       .  A
C860        C861   1.417       .  A
C860        C865   1.449   1_565  S
C861        C862   1.414       .  A
C861        C868   1.449   1_565  S
C862        C863   1.412       .  A
C863        C864   1.408       .  A
C863        C866   1.447       .  S
C864        C867   1.451       .  S
C865        N872   1.157       .  T
C866        N871   1.155       .  T
C867        N869   1.157       .  T
C868        N870   1.157       .  T
C873        C874   1.416       .  A
C873        C878   1.421       .  A
C874        C875   1.408       .  A
C874        C879   1.449       .  S
C875        C876   1.410       .  A
C875        C882   1.453       .  S
C876        C877   1.404       .  A
C877        C878   1.406       .  A
C877        C880   1.450       .  S
C878        C881   1.451       .  S
C879        N886   1.157       .  T
C880        N885   1.157   1_556  T
C881        N883   1.157       .  T
C882        N884   1.157       .  T
C887        C888   1.410       .  A
C887        C892   1.408       .  A
C888        C889   1.404       .  A
C888        C893   1.451       .  S
C889        C890   1.416       .  A
C889        C896   1.454       .  S
C890        C891   1.418   1_545  A
C891        C892   1.411   1_565  A
C891        C894   1.451       .  S
C892        C895   1.450   1_545  S
C893        N900   1.157       .  T
C894        N899   1.157       .  T
C895        N897   1.157       .  T
C896        N898   1.157       .  T
C901        C902   1.409       .  A
C901        C906   1.411       .  A
C902        C903   1.401       .  A
C902        C907   1.448       .  S
C903        C904   1.416       .  A
C903        C910   1.454       .  S
C904        C905   1.421       .  A
C905        C906   1.420       .  A
C905        C908   1.449       .  S
C906        C909   1.450       .  S
C907        N914   1.156       .  T
C908        N913   1.157       .  T
C909        N911   1.157       .  T
C910        N912   1.157       .  T
C915        C916   1.416       .  A
C915        C920   1.415       .  A
C916        C917   1.407       .  A
C916        C921   1.453       .  S
C917        C918   1.412       .  A
C917        C924   1.452       .  S
C918        C919   1.414       .  A
C919        C920   1.411       .  A
C919        C922   1.452       .  S
C920        C923   1.451       .  S
C921        N928   1.157   1_455  T
C922        N927   1.157       .  T
C923        N925   1.157       .  T
C924        N926   1.157       .  T
C929        C930   1.415       .  A
C929        C934   1.412       .  A
C930        C931   1.423       .  A
C930        C935   1.449       .  S
C931        C932   1.419       .  A
C931        C938   1.449       .  S
C932        C933   1.415       .  A
C933        C934   1.407       .  A
C933        C936   1.454       .  S
C934        C937   1.446       .  S
C935        N942   1.157       .  T
C936        N941   1.157       .  T
C937        N939   1.156       .  T
C938        N940   1.157       .  T
C943        C944   1.414       .  A
C943        C948   1.418       .  A
C944        C945   1.407       .  A
C944        C949   1.446       .  S
C945        C946   1.414       .  A
C945        C952   1.453       .  S
C946        C947   1.413       .  A
C947        C948   1.412       .  A
C947        C950   1.450       .  S
C948        C951   1.452   1_554  S
C949        N956   1.155       .  T
C950        N955   1.157   1_554  T
C951        N953   1.157       .  T
C952        N954   1.157       .  T
C957        C958   1.411   1_455  A
C957        C962   1.413       .  A
C958        C959   1.414       .  A
C958        C963   1.450       .  S
C959        C960   1.414   1_655  A
C959        C966   1.450       .  S
C960        C961   1.412       .  A
C961        C962   1.407       .  A
C961        C964   1.449       .  S
C962        C965   1.453       .  S
C963        N970   1.157       .  T
C964        N969   1.156       .  T
C965        N967   1.157       .  T
C966        N968   1.157       .  T
C971        C972   1.411       .  A
C971        C976   1.412       .  A
C972        C973   1.417       .  A
C972        C977   1.452       .  S
C973        C974   1.429       .  A
C973        C980   1.452       .  S
C974        C975   1.427       .  A
C975        C976   1.423       .  A
C975        C978   1.450       .  S
C976        C979   1.448       .  S
C977        N984   1.157       .  T
C978        N983   1.157       .  T
C979        N981   1.156       .  T
C980        N982   1.158       .  T
C985        C986   1.414       .  A
C985        C990   1.411       .  A
C986        C987   1.407       .  A
C986        C991   1.451       .  S
C987        C988   1.414       .  A
C987        C994   1.449       .  S
C988        C989   1.419       .  A
C989        C990   1.411       .  A
C989        C992   1.452   1_556  S
C990        C993   1.450   1_556  S
C991        N998   1.156       .  T
C992        N997   1.158       .  T
C993        N995   1.157       .  T
C994        N996   1.156       .  T
C999       C1000   1.414       .  A
C999       C1004   1.411       .  A
C1000      C1001   1.420       .  A
C1000      C1005   1.449   1_655  S
C1001      C1002   1.415       .  A
C1001      C1008   1.449   1_655  S
C1002      C1003   1.414       .  A
C1003      C1004   1.411       .  A
C1003      C1006   1.446       .  S
C1004      C1007   1.453       .  S
C1005      N1012   1.157       .  T
C1006      N1011   1.155       .  T
C1007      N1009   1.157       .  T
C1008      N1010   1.157       .  T
C1013      C1014   1.420       .  A
C1013      C1018   1.431   1_565  A
C1014      C1015   1.403   1_565  A
C1014      C1019   1.452       .  S
C1015      C1016   1.409       .  A
C1015      C1022   1.453       .  S
C1016      C1017   1.400       .  A
C1017      C1018   1.409       .  A
C1017      C1020   1.452       .  S
C1018      C1021   1.452       .  S
C1019      N1026   1.157       .  T
C1020      N1025   1.157       .  T
C1021      N1023   1.158       .  T
C1022      N1024   1.157       .  T
C1027      C1028   1.411       .  A
C1027      C1032   1.414       .  A
C1028      C1029   1.408       .  A
C1028      C1033   1.451       .  S
C1029      C1030   1.413   1_655  A
C1029      C1036   1.452       .  S
C1030      C1031   1.409   1_455  A
C1031      C1032   1.405       .  A
C1031      C1034   1.453   1_655  S
C1032      C1035   1.449       .  S
C1033      N1040   1.157       .  T
C1034      N1039   1.157       .  T
C1035      N1037   1.156       .  T
C1036      N1038   1.157   1_655  T
C1041      C1042   1.419       .  A
C1041      C1046   1.412       .  A
C1042      C1043   1.427       .  A
C1042      C1047   1.448       .  S
C1043      C1044   1.425       .  A
C1043      C1050   1.446       .  S
C1044      C1045   1.430       .  A
C1045      C1046   1.411       .  A
C1045      C1048   1.452       .  S
C1046      C1049   1.451       .  S
C1047      N1054   1.157       .  T
C1048      N1053   1.157       .  T
C1049      N1051   1.156       .  T
C1050      N1052   1.156   1_556  T
C1055      C1056   1.413       .  A
C1055      C1060   1.412       .  A
C1056      C1057   1.419       .  A
C1056      C1061   1.449       .  S
C1057      C1058   1.423       .  A
C1057      C1064   1.451       .  S
C1058      C1059   1.424       .  A
C1059      C1060   1.416       .  A
C1059      C1062   1.452       .  S
C1060      C1063   1.451       .  S
C1061      N1068   1.157       .  T
C1062      N1067   1.158       .  T
C1063      N1065   1.157       .  T
C1064      N1066   1.157       .  T
C1069      C1070   1.425       .  A
C1069      C1074   1.425       .  A
C1070      C1071   1.413       .  A
C1070      C1075   1.450       .  S
C1071      C1072   1.409       .  A
C1071      C1078   1.453       .  S
C1072      C1073   1.412       .  A
C1073      C1074   1.421       .  A
C1073      C1076   1.451       .  S
C1074      C1077   1.451       .  S
C1075      N1082   1.157       .  T
C1076      N1081   1.157       .  T
C1077      N1079   1.157       .  T
C1078      N1080   1.157       .  T
C1083      C1084   1.415       .  A
C1083      C1088   1.411       .  A
C1084      C1085   1.411       .  A
C1084      C1089   1.452       .  S
C1085      C1086   1.414       .  A
C1085      C1092   1.450       .  S
C1086      C1087   1.416       .  A
C1087      C1088   1.406       .  A
C1087      C1090   1.452       .  S
C1088      C1091   1.449       .  S
C1089      N1096   1.157       .  T
C1090      N1095   1.157       .  T
C1091      N1093   1.156       .  T
C1092      N1094   1.157       .  T
C1097      C1098   1.416       .  A
C1097      C1102   1.410       .  A
C1098      C1099   1.417       .  A
C1098      C1103   1.447       .  S
C1099      C1100   1.410       .  A
C1099      C1106   1.450       .  S
C1100      C1101   1.413       .  A
C1101      C1102   1.410       .  A
C1101      C1104   1.444       .  S
C1102      C1105   1.453       .  S
C1103      N1110   1.157       .  T
C1104      N1109   1.154       .  T
C1105      N1107   1.157       .  T
C1106      N1108   1.157       .  T
C1111      C1112   1.411       .  A
C1111      C1116   1.408   1_655  A
C1112      C1113   1.411   1_655  A
C1112      C1117   1.452       .  S
C1113      C1114   1.417       .  A
C1113      C1120   1.449       .  S
C1114      C1115   1.418       .  A
C1115      C1116   1.404       .  A
C1115      C1118   1.453       .  S
C1116      C1119   1.451   1_455  S
C1117      N1124   1.157       .  T
C1118      N1123   1.157       .  T
C1119      N1121   1.157       .  T
C1120      N1122   1.157       .  T
C1125      C1126   1.417       .  A
C1125      C1130   1.420       .  A
C1126      C1127   1.418   1_545  A
C1126      C1131   1.450       .  S
C1127      C1128   1.412       .  A
C1127      C1134   1.450       .  S
C1128      C1129   1.413       .  A
C1129      C1130   1.419   1_565  A
C1129      C1132   1.451       .  S
C1130      C1133   1.451       .  S
C1131      N1138   1.157       .  T
C1132      N1137   1.157       .  T
C1133      N1135   1.157       .  T
C1134      N1136   1.157       .  T
C1139      C1140   1.408       .  A
C1139      C1144   1.407       .  A
C1140      C1141   1.413       .  A
C1140      C1145   1.451       .  S
C1141      C1142   1.420       .  A
C1141      C1148   1.450       .  S
C1142      C1143   1.423       .  A
C1143      C1144   1.406       .  A
C1143      C1146   1.451       .  S
C1144      C1147   1.454       .  S
C1145      N1152   1.157       .  T
C1146      N1151   1.157       .  T
C1147      N1149   1.157       .  T
C1148      N1150   1.157       .  T
