geometry optimzed in LAMMPS
_audit_creation_date              2020-11-30 
_audit_creation_method            'lammps2cif' 
_symmetry_space_group_name_H-M    'P1' 
_symmetry_Int_Tables_number       1 
_symmetry_cell_setting            triclinic 
loop_ 
_symmetry_equiv_pos_as_xyz 
  x,y,z 
_cell_length_a                    45.51369396038947 
_cell_length_b                    45.200417283658666 
_cell_length_c                    24.7291927623095 
_cell_angle_alpha                 92.04922145139936 
_cell_angle_beta                  90.08549665160251 
_cell_angle_gamma                 91.6954146913072 
loop_ 
_atom_site_label 
_atom_site_type_symbol 
_atom_site_fract_x 
_atom_site_fract_y 
_atom_site_fract_z 
_atom_site_charge 
O1          O  0.15892679  0.39500093  0.38003480    -0.80680
O2          O  0.14450226  0.25945123  0.35687256    -0.80700
O3          O  0.13823738  0.33652785  0.29221772    -0.80710
O4          O  0.10592522  0.32672462  0.37606295    -0.80650
O5          O  0.16209917  0.29525551  0.27660764    -0.80780
O6          O  0.11884755  0.36167550  0.43663972    -0.80700
O7          O  0.10464204  0.26896379  0.40672065    -0.80680
O8          O  0.16956426  0.38917565  0.29230427    -0.80720
C9          C  0.16049406  0.40533762  0.33173624     1.09010
C10         C  0.11863434  0.25200083  0.37421177     1.08890
C11         C  0.14308531  0.31375480  0.26275056     1.09030
C12         C  0.09976465  0.34904018  0.40558659     1.08910
O13         O  0.16511634  0.33669841  0.49868205    -0.80680
O14         O  0.21845265  0.30802166  0.33233631    -0.80760
O15         O  0.21099576  0.37066764  0.35849777    -0.80690
O16         O  0.15761856  0.27377642  0.45483803    -0.80670
O17         O  0.20000133  0.27296915  0.41383330    -0.80730
O18         O  0.20477765  0.36810937  0.44547381    -0.80690
O19         O  0.12273230  0.31381487  0.48593789    -0.80650
O20         O  0.20006827  0.33626343  0.27291450    -0.80720
Co21       Co  0.16269984  0.36242224  0.43743036     1.51530
Co22       Co  0.18125246  0.28683276  0.34807425     1.51690
Co23       Co  0.17274057  0.35369197  0.32987127     1.51570
Co24       Co  0.13356216  0.30025827  0.40949985     1.51470
O25         O  0.16786435  0.32501471  0.38804087    -1.42610
C26         C  0.14192328  0.32568953  0.51804273     1.08940
C27         C  0.22009238  0.31896258  0.28631723     1.09030
C28         C  0.22069498  0.37411436  0.40602723     1.08960
C29         C  0.18383784  0.26571985  0.45271526     1.08940
O30         O  0.14138836  0.32952978  0.00818375    -0.80680
O31         O  0.20147251  0.29523127  0.84626863    -0.80700
O32         O  0.16829466  0.28618417  0.96075050    -0.80710
O33         O  0.19920818  0.37719278  0.86264542    -0.80650
O34         O  0.17065673  0.25289970  0.89651086    -0.80780
O35         O  0.18723727  0.35668691  0.94049289    -0.80700
O36         O  0.20177556  0.33294975  0.79917068    -0.80680
O37         O  0.11493859  0.28746720  0.00732260    -0.80720
C38         C  0.12720796  0.30900114  0.03345781     1.09010
C39         C  0.21248981  0.30860553  0.80754729     1.08890
C40         C  0.17660274  0.26128212  0.94456179     1.09030
C41         C  0.20566044  0.37172987  0.91136154     1.08910
O42         O  0.13816620  0.38711751  0.89113593    -0.80680
O43         O  0.12238304  0.26074974  0.82439418    -0.80760
O44         O  0.08885259  0.30415548  0.91602835    -0.80690
O45         O  0.15454632  0.34653184  0.78137404    -0.80670
O46         O  0.15415290  0.29757229  0.76388758    -0.80730
O47         O  0.09796864  0.35093441  0.93481475    -0.80690
O48         O  0.14820027  0.36940471  0.81150987    -0.80650
O49         O  0.11604320  0.25491717  0.91126619    -0.80720
Co50       Co  0.14192405  0.35073676  0.93513188     1.51530
Co51       Co  0.16133900  0.27898402  0.83483357     1.51690
Co52       Co  0.12840971  0.29629606  0.93717520     1.51570
Co53       Co  0.17265151  0.34438163  0.85636952     1.51470
O54         O  0.14275834  0.31484712  0.87302888    -1.42610
C55         C  0.13844751  0.39034838  0.84078262     1.08940
C56         C  0.10991670  0.24751971  0.86236953     1.09030
C57         C  0.07995193  0.32970493  0.92405273     1.08960
C58         C  0.15020770  0.32377127  0.74883931     1.08940
O59         O  0.44974829  0.37936303  0.95042559    -0.80680
O60         O  0.33166528  0.40690911  0.02670413    -0.80700
O61         O  0.40117573  0.35139075  0.00471522    -0.80710
O62         O  0.39362013  0.40130407  0.88238232    -0.80650
O63         O  0.36994333  0.36609508  0.06857837    -0.80780
O64         O  0.43597418  0.42440486  0.89418791    -0.80700
O65         O  0.34488029  0.39510175  0.94374101    -0.80680
O66         O  0.46028292  0.35833868  0.02630284    -0.80720
C67         C  0.46553693  0.36182115  0.97673432     1.09010
C68         C  0.32533282  0.39715461  0.97933692     1.08890
C69         C  0.38134252  0.34537081  0.03886194     1.09030
C70         C  0.41786118  0.41024286  0.86345914     1.08910
O71         O  0.42839200  0.46292776  0.98964318    -0.80680
O72         O  0.40476741  0.41850768  0.11271136    -0.80760
O73         O  0.45877035  0.41780070  0.05141765    -0.80690
O74         O  0.35048330  0.45723532  0.98122605    -0.80670
O75         O  0.37002453  0.45490564  0.06273861    -0.80730
O76         O  0.47888587  0.43121659  0.97476276    -0.80690
O77         O  0.39965405  0.46337228  0.91919797    -0.80650
O78         O  0.42293614  0.37570960  0.10280494    -0.80720
Co79       Co  0.43773169  0.42114954  0.97521121     1.51530
Co80       Co  0.37072726  0.41165108  0.06447642     1.51690
Co81       Co  0.42843124  0.38447577  0.02403064     1.51570
Co82       Co  0.37339564  0.42770190  0.93525434     1.51470
O83         O  0.39673542  0.41133515  0.99815717    -1.42610
C84         C  0.41960334  0.47589430  0.94864213     1.08940
C85         C  0.41458929  0.39617746  0.13416783     1.09030
C86         C  0.98074475  0.43185967  0.02466034     1.08960
C87         C  0.35823983  0.46957281  0.02644350     1.08940
O88         O  0.48195465  0.41955988  0.43725993    -0.80680
O89         O  0.34961519  0.39403718  0.47984593    -0.80700
O90         O  0.42820219  0.34072617  0.53325730    -0.80710
O91         O  0.38792345  0.41406574  0.38935735    -0.80650
O92         O  0.38252165  0.35752202  0.54772235    -0.80780
O93         O  0.43295039  0.40126789  0.39313445    -0.80700
O94         O  0.34895274  0.43957954  0.45255937    -0.80680
O95         O  0.46659604  0.37789689  0.47717331    -0.80720
C96         C  0.48603266  0.39300808  0.45007942     1.09010
C97         C  0.33673667  0.41429409  0.45645695     1.08890
C98         C  0.40124250  0.33598645  0.54536363     1.09030
C99         C  0.40934217  0.40235992  0.36690026     1.08910
O100        O  0.43898561  0.46377129  0.42692075    -0.80680
O101        O  0.39145752  0.41056873  0.61627575    -0.80760
O102        O  0.45678220  0.40014727  0.56598016    -0.80690
O103        O  0.39358331  0.47136230  0.50936049    -0.80670
O104        O  0.35933536  0.44624217  0.55451148    -0.80730
O105        O  0.45904456  0.44382503  0.52802272    -0.80690
O106        O  0.39290546  0.47308765  0.40002329    -0.80650
O107        O  0.43225925  0.38706131  0.59732260    -0.80720
Co108      Co  0.44373034  0.42317673  0.46326735     1.51530
Co109      Co  0.37240775  0.40301524  0.54635621     1.51690
Co110      Co  0.42551422  0.38033392  0.51459557     1.51570
Co111      Co  0.39259063  0.44264838  0.44979368     1.51470
O112        O  0.40680220  0.41694410  0.50166593    -1.42610
C113        C  0.42026229  0.47979383  0.40201965     1.08940
C114        C  0.41491712  0.39960933  0.63190119     1.09030
C115        C  0.46666822  0.42730275  0.56525963     1.08960
C116        C  0.37300623  0.47071600  0.54360606     1.08940
O117        O  0.24004243  0.19193233  0.14266898    -0.80680
O118        O  0.34348647  0.11220916  0.05657638    -0.80700
O119        O  0.31423446  0.20502424  0.02131463    -0.80710
O120        O  0.28387268  0.11777902  0.19170046    -0.80650
O121        O  0.31946237  0.15779867  0.00938508    -0.80780
O122        O  0.26388191  0.13760383  0.12209087    -0.80700
O123        O  0.33398797  0.09716809  0.13962279    -0.80680
O124        O  0.26611292  0.18721912  0.06918945    -0.80720
C125        C  0.24167288  0.19350192  0.09152371     1.09010
C126        C  0.33931766  0.09196941  0.08997044     1.08890
C127        C  0.31240812  0.18197882  0.99057534     1.09030
C128        C  0.26214431  0.11938080  0.15900351     1.08910
O129        O  0.27530945  0.16968099  0.22675270    -0.80680
O130        O  0.36479790  0.19964309  0.05727194    -0.80760
O131        O  0.28993166  0.24127275  0.10104157    -0.80690
O132        O  0.37106497  0.14135988  0.19204282    -0.80670
O133        O  0.38672975  0.15024243  0.10921434    -0.80730
O134        O  0.29158839  0.21862243  0.17711781    -0.80690
O135        O  0.32246776  0.16641607  0.23824279    -0.80650
O136        O  0.34309441  0.21824754  0.12797039    -0.80720
Co137      Co  0.27975582  0.17693335  0.14616677     1.51530
Co138      Co  0.35118862  0.15564580  0.06281405     1.51690
Co139      Co  0.30546140  0.20162215  0.10169124     1.51570
Co140      Co  0.32730771  0.13316761  0.18602770     1.51470
O141        O  0.32061316  0.16188057  0.12414216    -1.42210
C142        C  0.29746025  0.17025095  0.25823542     1.08940
C143        C  0.36081785  0.22167957  0.09010411     1.09030
C144        C  0.28685601  0.24237062  0.15190405     1.08960
C145        C  0.39192883  0.14462708  0.15828632     1.08940
O146        O  0.23451608  0.18695444  0.64955663    -0.80680
O147        O  0.34496666  0.10912019  0.56821290    -0.80700
O148        O  0.30567623  0.19879049  0.52272493    -0.80710
O149        O  0.27448421  0.11490206  0.69974454    -0.80650
O150        O  0.31545765  0.15184262  0.51279330    -0.80780
O151        O  0.25710181  0.13251601  0.62701510    -0.80700
O152        O  0.31576508  0.09217422  0.63256054    -0.80680
O153        O  0.25879049  0.18145506  0.57425705    -0.80720
C154        C  0.23515169  0.18865013  0.59837222     1.09010
C155        C  0.33269137  0.08797011  0.59306334     1.08890
C156        C  0.30717658  0.17542091  0.49235597     1.09030
C157        C  0.25331137  0.11656896  0.66673072     1.08910
O158        O  0.27356473  0.16590941  0.73136974    -0.80680
O159        O  0.35703922  0.19697778  0.55766968    -0.80760
O160        O  0.28069446  0.23662266  0.60796014    -0.80690
O161        O  0.36187228  0.12582289  0.68364410    -0.80670
O162        O  0.37923398  0.15466301  0.61984478    -0.80730
O163        O  0.28780403  0.21196417  0.68032399    -0.80690
O164        O  0.32007959  0.15665937  0.74288641    -0.80650
O165        O  0.33579694  0.21571720  0.62815532    -0.80720
Co166      Co  0.27424785  0.17161571  0.65006954     1.51530
Co167      Co  0.34621464  0.15336817  0.56864065     1.51690
Co168      Co  0.29817508  0.19702561  0.60408944     1.51570
Co169      Co  0.31789368  0.12541046  0.68539046     1.51470
O170        O  0.31420032  0.15749216  0.62742192    -1.42610
C171        C  0.29624610  0.16600803  0.76165091     1.08940
C172        C  0.35412831  0.21862990  0.59115479     1.09030
C173        C  0.27851049  0.23521507  0.65920601     1.08960
C174        C  0.38316930  0.13799826  0.65881468     1.08940
O175        O  0.07604115  0.50379330  0.26631972    -0.80680
O176        O  0.07440759  0.13752086  0.22485290    -0.80700
O177        O  0.13186683  0.05187514  0.16349846    -0.80710
O178        O  0.07461539  0.07077319  0.35494716    -0.80650
O179        O  0.11893781  0.09595339  0.19664730    -0.80780
O180        O  0.04459628  0.03181205  0.34256058    -0.80700
O181        O  0.08809614  0.11780023  0.29776182    -0.80680
O182        O  0.11303239  0.03639969  0.26372075    -0.80720
C183        C  0.10281808  0.51115965  0.27593625     1.09010
C184        C  0.08594353  0.14050635  0.27107972     1.08890
C185        C  0.13925586  0.07835225  0.17799544     1.09030
C186        C  0.06353856  0.04677004  0.37109771     1.08910
O187        O  0.00374531  0.05045167  0.25838669    -0.80680
O188        O  0.07924740  0.11481628  0.12149929    -0.80760
O189        O  0.08153736  0.51341808  0.16754166    -0.80690
O190        O  0.02427529  0.12042414  0.26407392    -0.80670
O191        O  0.02860792  0.10151575  0.18036942    -0.80730
O192        O  0.03535430  0.52212726  0.18339281    -0.80690
O193        O  0.01322456  0.07594468  0.33243892    -0.80650
O194        O  0.07834386  0.06583040  0.12619064    -0.80720
Co195      Co  0.04051507  0.02911160  0.26077953     1.51530
Co196      Co  0.07190476  0.09676536  0.18891138     1.51690
Co197      Co  0.09518936  0.05379649  0.19993490     1.51570
Co198      Co  0.05139099  0.09529028  0.30899578     1.51470
O199        O  0.06188771  0.06762728  0.24650286    -1.42610
C200        C  0.99523380  0.06048187  0.30338636     1.08940
C201        C  0.07806241  0.08934245  0.09838921     1.09030
C202        C  0.05443324  0.50847633  0.15667074     1.08960
C203        C  0.01355534  0.11522599  0.21638963     1.08940
O204        O  0.10250713  0.52412204  0.78245251    -0.80680
O205        O  0.07643338  0.13140328  0.73859672    -0.80700
O206        O  0.12240604  0.06534974  0.72691389    -0.80710
O207        O  0.07035286  0.07328582  0.84410481    -0.80650
O208        O  0.11149271  0.09946783  0.66968363    -0.80780
O209        O  0.06138600  0.02600803  0.86122542    -0.80700
O210        O  0.04281330  0.12133962  0.80013188    -0.80680
O211        O  0.11459991  0.50633798  0.70121219    -0.80720
C212        C  0.11314883  0.50309976  0.75203814     1.09010
C213        C  0.06214850  0.13827007  0.78068733     1.08890
C214        C  0.13030498  0.08624588  0.69750190     1.09030
C215        C  0.06952590  0.05212355  0.87761588     1.08910
O216        O  0.01497416  0.03902147  0.79879558    -0.80680
O217        O  0.05919958  0.07651748  0.61379280    -0.80760
O218        O  0.05759460  0.51184927  0.67478168    -0.80690
O219        O  0.00384162  0.08386569  0.74130289    -0.80670
O220        O  0.02411871  0.11236515  0.67948437    -0.80730
O221        O  0.04570191  0.49832063  0.75545646    -0.80690
O222        O  0.01031053  0.07870511  0.85048154    -0.80650
O223        O  0.09621512  0.04684825  0.62605526    -0.80720
Co224      Co  0.05951146  0.03732023  0.78754084     1.51530
Co225      Co  0.06727846  0.10277288  0.67840844     1.51690
Co226      Co  0.08917046  0.03864269  0.70327541     1.51570
Co227      Co  0.03749082  0.07826051  0.78937756     1.51470
O228        O  0.06081110  0.06675673  0.72423202    -1.42610
C229        C  0.50234891  0.05204147  0.83980042     1.08940
C230        C  0.07679952  0.05723587  0.59598314     1.09030
C231        C  0.04353506  0.49467145  0.70481474     1.08960
C232        C  0.00160042  0.10147649  0.70320905     1.08940
C233        C  0.07509435  0.04733026  0.53926298    -0.06010
C234        C  0.09986274  0.05081201  0.50644789    -0.33440
C235        C  0.09721302  0.04713266  0.45041403     0.35810
C236        C  0.06961630  0.03942751  0.42715001    -0.06370
C237        C  0.04592969  0.03192698  0.46064014    -0.33340
C238        C  0.04839827  0.03637503  0.51665911     0.35720
H239        H  0.12067312  0.05860216  0.52388588     0.16090
O240        O  0.12099975  0.05368022  0.41851999    -0.60830
H241        H  0.02478342  0.02534226  0.44324885     0.16100
O242        O  0.02421855  0.03169804  0.54864653    -0.60930
H243        H  0.02582575  0.01116785  0.56098941     0.43100
H244        H  0.12997842  0.03436118  0.40989817     0.43050
C245        C  0.07345953  0.05995778  0.93483206    -0.06010
C246        C  0.04841784  0.05874944  0.96748389    -0.33440
C247        C  0.04878979  0.07219478  0.01915761     0.35810
C248        C  0.07499563  0.08510570  0.03999148    -0.06370
C249        C  0.10009024  0.08663627  0.00730837    -0.33340
C250        C  0.09917684  0.07478708  0.95421302     0.35720
H251        H  0.02806246  0.04870893  0.95188381     0.16090
O252        O  0.02364393  0.07243735  0.04970372    -0.60830
H253        H  0.12052899  0.09618556  0.02348792     0.16100
O254        O  0.12340322  0.07766310  0.92170513    -0.60930
H255        H  0.13432314  0.05922459  0.92596445     0.43100
H256        H  0.50994307  0.06968434  0.03833468     0.43050
C257        C  0.47139488  0.11041544  0.68983923    -0.06010
C258        C  0.46690817  0.13783443  0.66656356    -0.33440
C259        C  0.43838340  0.14778570  0.65801325     0.35810
C260        C  0.41366070  0.13021721  0.67274241    -0.06370
C261        C  0.41825035  0.10278059  0.69568926    -0.33340
C262        C  0.44657994  0.09273039  0.70375553     0.35720
H263        H  0.48554643  0.15193791  0.65607992     0.16090
O264        O  0.43500294  0.17471422  0.63527427    -0.60830
H265        H  0.39972863  0.08845200  0.70594532     0.16100
O266        O  0.44964520  0.06537879  0.72511895    -0.60930
H267        H  0.45103227  0.05141552  0.69342095     0.43100
H268        H  0.43305441  0.18904091  0.66628952     0.43050
C269        C  0.16207547  0.09304736  0.69151677    -0.06010
C270        C  0.17557199  0.11609498  0.72250007    -0.33440
C271        C  0.20575427  0.12275574  0.71698506     0.35810
C272        C  0.22296015  0.10625077  0.67983848    -0.06370
C273        C  0.20943256  0.08280392  0.64951181    -0.33340
C274        C  0.17935660  0.07578788  0.65597637     0.35720
H275        H  0.16264437  0.12915194  0.75074676     0.16090
O276        O  0.21814109  0.14574672  0.74759953    -0.60830
H277        H  0.22212145  0.07018220  0.62024479     0.16100
O278        O  0.16682130  0.05254017  0.62617874    -0.60930
H279        H  0.16824195  0.03518132  0.64936962     0.43100
H280        H  0.20870138  0.16385533  0.73539943     0.43050
C281        C  0.29454532  0.17331714  0.82019934    -0.06010
C282        C  0.30651659  0.20023985  0.84193363    -0.33440
C283        C  0.31006987  0.20481462  0.89827240     0.35810
C284        C  0.30257095  0.18183407  0.93321936    -0.06370
C285        C  0.28900756  0.15569313  0.91118859    -0.33340
C286        C  0.28488443  0.15143123  0.85539847     0.35720
H287        H  0.31416998  0.21722888  0.81506088     0.16090
O288        O  0.32327947  0.23062121  0.91807966    -0.60830
H289        H  0.28284716  0.13775886  0.93723198     0.16100
O290        O  0.27382427  0.12468241  0.83532133    -0.60930
H291        H  0.25222580  0.12686951  0.83420796     0.43100
H292        H  0.30686603  0.24391218  0.92682273     0.43050
C293        C  0.29521227  0.17100848  0.31807262    -0.06010
C294        C  0.28477305  0.19559815  0.34796586    -0.33440
C295        C  0.28797158  0.19766633  0.40501529     0.35810
C296        C  0.30142454  0.17473988  0.43265953    -0.06370
C297        C  0.31070007  0.14986989  0.40210566    -0.33340
C298        C  0.30812251  0.14811831  0.34593324     0.35720
H299        H  0.27534730  0.21371819  0.32703286     0.16090
O300        O  0.27883601  0.22247806  0.43289439    -0.60830
H301        H  0.32108939  0.13177019  0.42151940     0.16100
O302        O  0.31867059  0.12380092  0.31822017    -0.60930
H303        H  0.34022964  0.12745383  0.31588377     0.43100
H304        H  0.25709645  0.22060153  0.43333208     0.43050
C305        C  0.42364421  0.14024934  0.17552024    -0.06010
C306        C  0.44614968  0.13935604  0.13623675    -0.33440
C307        C  0.47526522  0.13198671  0.14916807     0.35810
C308        C  0.48322558  0.12566032  0.20273080    -0.06370
C309        C  0.46111987  0.12759251  0.24255176    -0.33340
C310        C  0.43181882  0.13454485  0.22950475     0.35720
H311        H  0.44109172  0.14364251  0.09448442     0.16090
O312        O  0.49597401  0.13162899  0.10895033    -0.60830
H313        H  0.46632107  0.12275793  0.28401598     0.16100
O314        O  0.41123672  0.13475593  0.26992220    -0.60930
H315        H  0.41155124  0.15543527  0.28476588     0.43100
H316        H  0.49224841  0.11270051  0.08827516     0.43050
C317        C  0.17130915  0.08809497  0.17564242    -0.06010
C318        C  0.19063124  0.07343757  0.13965497    -0.33440
C319        C  0.22061561  0.08222160  0.13577661     0.35810
C320        C  0.23247468  0.10541367  0.16943149    -0.06370
C321        C  0.21344143  0.11962397  0.20624157    -0.33340
C322        C  0.18327695  0.11144701  0.20911526     0.35720
H323        H  0.18226450  0.05555622  0.11307623     0.16090
O324        O  0.23787148  0.06868951  0.09742501    -0.60830
H325        H  0.22173192  0.13812300  0.23145182     0.16100
O326        O  0.16582016  0.12631316  0.24537099    -0.60930
H327        H  0.15950004  0.14403706  0.22643841     0.43100
H328        H  0.24774999  0.05279901  0.11650273     0.43050
C329        C  0.48603095  0.43958850  0.60826928    -0.06010
C330        C  0.47456665  0.45855225  0.64841771    -0.33440
C331        C  0.99322888  0.47462896  0.68464267     0.35810
C332        C  0.02381807  0.47200198  0.67976669    -0.06370
C333        C  0.03521626  0.45189526  0.64135740    -0.33340
C334        C  0.01640964  0.43542690  0.60625138     0.35720
H335        H  0.45124428  0.46242323  0.64953716     0.16090
O336        O  0.48161017  0.49401536  0.72171882    -0.60830
H337        H  0.05878968  0.45020006  0.63665720     0.16100
O338        O  0.02808737  0.41700984  0.56716904    -0.60930
H339        H  0.03182280  0.42962882  0.53575527     0.43100
H340        H  0.47617517  0.48214491  0.75334489     0.43050
C341        C  0.43152490  0.00632930  0.37610573    -0.06010
C342        C  0.44459201  0.02934622  0.40802907    -0.33440
C343        C  0.46252913  0.05098700  0.38436478     0.35810
C344        C  0.46818102  0.04891648  0.32832890    -0.06370
C345        C  0.45173413  0.52812039  0.29597424    -0.33340
C346        C  0.43370780  0.50668837  0.31964808     0.35720
H347        H  0.44233347  0.02951686  0.45164967     0.16090
O348        O  0.47559767  0.07302973  0.41650833    -0.60830
H349        H  0.45507675  0.52649828  0.25260307     0.16100
O350        O  0.42056618  0.48461865  0.28768185    -0.60930
H351        H  0.43512140  0.46872895  0.28477285     0.43100
H352        H  0.49015723  0.06317606  0.43901676     0.43050
C353        C  0.36834482  0.24832846  0.58299284    -0.06010
C354        C  0.39151306  0.25169637  0.54596732    -0.33440
C355        C  0.40312485  0.27997261  0.53435344     0.35810
C356        C  0.39089418  0.30559869  0.55844557    -0.06370
C357        C  0.36816127  0.30220215  0.59596433    -0.33340
C358        C  0.35727661  0.27412649  0.60904351     0.35720
H359        H  0.40045321  0.23240036  0.52545645     0.16090
O360        O  0.42537899  0.28232270  0.49730512    -0.60830
H361        H  0.35875911  0.32151153  0.61568079     0.16100
O362        O  0.33483412  0.27246963  0.64579985    -0.60930
H363        H  0.34458929  0.27212095  0.68164624     0.43100
H364        H  0.44369449  0.27964591  0.51812173     0.43050
C365        C  0.34159993  0.05747623  0.58000218    -0.06010
C366        C  0.37118341  0.05329870  0.56742874    -0.33440
C367        C  0.38207989  0.02501026  0.56076371     0.35810
C368        C  0.36304962  0.99984689  0.56422621    -0.06370
C369        C  0.33354166  0.00385838  0.57863139    -0.33340
C370        C  0.32282919  0.03249433  0.58711350     0.35720
H371        H  0.38631862  0.07214517  0.56439676     0.16090
O372        O  0.41144267  0.02229986  0.54970792    -0.60830
H373        H  0.31853604  0.48491611  0.58132596     0.16100
O374        O  0.29400222  0.03580268  0.60158025    -0.60930
H375        H  0.28328000  0.03791174  0.56705885     0.43100
H376        H  0.42087675  0.01941325  0.58523537     0.43050
C377        C  0.42260242  0.40846657  0.80450111    -0.06010
C378        C  0.43113972  0.38209323  0.77794891    -0.33440
C379        C  0.43125725  0.37950821  0.72096474     0.35810
C380        C  0.42214526  0.40329608  0.69025895    -0.06370
C381        C  0.41467972  0.42987997  0.71734316    -0.33340
C382        C  0.41528420  0.43269752  0.77371710     0.35720
H383        H  0.43667020  0.36321932  0.80135203     0.16090
O384        O  0.43832162  0.35309926  0.69597470    -0.60830
H385        H  0.40711198  0.44828488  0.69468310     0.16100
O386        O  0.40727047  0.45886732  0.79851947    -0.60930
H387        H  0.38558529  0.45722641  0.80208237     0.43100
H388        H  0.41941372  0.34177170  0.69163439     0.43050
C389        C  0.41241523  0.39347396  0.19351578    -0.06010
C390        C  0.38891818  0.40714992  0.21969389    -0.33440
C391        C  0.38621075  0.40755615  0.27580215     0.35810
C392        C  0.40780214  0.39458143  0.30791663    -0.06370
C393        C  0.43075314  0.37956464  0.28156333    -0.33340
C394        C  0.43294854  0.37866316  0.22463505     0.35720
H395        H  0.37263010  0.41831750  0.19647277     0.16090
O396        O  0.36386762  0.42339453  0.29881214    -0.60830
H397        H  0.44773201  0.36968954  0.30512607     0.16100
O398        O  0.45594489  0.36457807  0.20020593    -0.60930
H399        H  0.47189006  0.37992403  0.19805250     0.43100
H400        H  0.34551426  0.41202366  0.28926516     0.43050
C401        C  0.00356042  0.45045745  0.05306778    -0.06010
C402        C  0.02542160  0.43835246  0.08524861    -0.33440
C403        C  0.04541028  0.45708730  0.11514685     0.35810
C404        C  0.04327275  0.48807457  0.11308321    -0.06370
C405        C  0.02225418  0.49958558  0.07913282    -0.33340
C406        C  0.49294260  0.48004694  0.06733731     0.35720
H407        H  0.02642218  0.41456229  0.08840283     0.16090
O408        O  0.06546792  0.44502788  0.14873836    -0.60830
H409        H  0.01902923  0.02309595  0.07979207     0.16100
O410        O  0.46561182  0.48952795  0.05447213    -0.60930
H411        H  0.46875701  0.00490675  0.02790658     0.43100
H412        H  0.05515602  0.44283614  0.18372980     0.43050
C413        C  0.43968857  0.99796618  0.92459931    -0.06010
C414        C  0.46553872  0.48688490  0.90300558    -0.33440
C415        C  0.48576839  0.50461868  0.87708094     0.35810
C416        C  0.48062201  0.03485199  0.87118381    -0.06370
C417        C  0.45494996  0.04684863  0.89389421    -0.33340
C418        C  0.43416550  0.02830576  0.92007115     0.35720
H419        H  0.47040363  0.46391193  0.90488202     0.16090
O420        O  0.00913268  0.49147846  0.85234194    -0.60830
H421        H  0.45066807  0.07011571  0.89000014     0.16100
O422        O  0.40904501  0.03997128  0.94129257    -0.60930
H423        H  0.39387077  0.03641219  0.91279802     0.43100
H424        H  0.02094948  0.48618766  0.88414995     0.43050
C425        C  0.37018548  0.25282609  0.07811837    -0.06010
C426        C  0.37709423  0.26061960  0.02496024    -0.33440
C427        C  0.37981395  0.29055223  0.01099432     0.35810
C428        C  0.37527792  0.31354855  0.05020870    -0.06370
C429        C  0.36898532  0.30575064  0.10337788    -0.33340
C430        C  0.36666361  0.27597961  0.11755335     0.35720
H431        H  0.37936825  0.24350102  0.99358628     0.16090
O432        O  0.38670099  0.29702657  0.95867816    -0.60830
H433        H  0.36659884  0.32285427  0.13478053     0.16100
O434        O  0.36129101  0.26973986  0.17058909    -0.60930
H435        H  0.34114079  0.27653348  0.17794683     0.43100
H436        H  0.36752316  0.29890553  0.94021779     0.43050
C437        C  0.35359041  0.00152716  0.03860762    -0.06010
C438        C  0.32795807  0.01538481  0.02207451    -0.33440
C439        C  0.32286533  0.04503584  0.03814464     0.35810
C440        C  0.34347459  0.06101455  0.07120466    -0.06370
C441        C  0.36941948  0.04752876  0.08593770    -0.33340
C442        C  0.37462530  0.01818958  0.06988506     0.35720
H443        H  0.31153789  0.50299906  0.99811332     0.16090
O444        O  0.29725507  0.05777143  0.02323516    -0.60830
H445        H  0.38584209  0.05989054  0.11002043     0.16100
O446        O  0.40086070  0.00622230  0.08361743    -0.60930
H447        H  0.39873006  0.00096889  0.12203879     0.43100
H448        H  0.30191130  0.06764202  0.98898773     0.43050
C449        C  0.19039431  0.24123148  0.98270633    -0.06010
C450        C  0.18763500  0.24670549  0.03889457    -0.33440
C451        C  0.20124531  0.22875800  0.07600291     0.35810
C452        C  0.21855015  0.20529767  0.05710504    -0.06370
C453        C  0.21962149  0.19862952  0.00112479    -0.33340
C454        C  0.20566729  0.21621663  0.96410348     0.35720
H455        H  0.17550669  0.26544573  0.05424741     0.16090
O456        O  0.19982866  0.23615426  0.13018150    -0.60830
H457        H  0.23301224  0.18079542  0.98564281     0.16100
O458        O  0.20906767  0.21001958  0.90979300    -0.60930
H459        H  0.19379055  0.19456699  0.90049327     0.43100
H460        H  0.18151376  0.22627283  0.14297378     0.43050
C461        C  0.23197847  0.29289651  0.76936804    -0.06010
C462        C  0.23475459  0.26291159  0.77800481    -0.33440
C463        C  0.24893573  0.24468095  0.74154677     0.35810
C464        C  0.26277943  0.25623916  0.69536867    -0.06370
C465        C  0.26033865  0.28656082  0.68580043    -0.33340
C466        C  0.24461165  0.30494935  0.72243233     0.35720
H467        H  0.22434954  0.25257537  0.81225131     0.16090
O468        O  0.24645843  0.21484824  0.74909126    -0.60830
H469        H  0.27028651  0.29583994  0.65018932     0.16100
O470        O  0.24176151  0.33431111  0.71209729    -0.60930
H471        H  0.22632192  0.33471137  0.68382448     0.43100
H472        H  0.25327329  0.21175890  0.78650876     0.43050
C473        C  0.23557003  0.37967568  0.93177557    -0.06010
C474        C  0.25563864  0.39321894  0.89663577    -0.33440
C475        C  0.28475053  0.39884397  0.91196139     0.35810
C476        C  0.29453838  0.39099869  0.96343277    -0.06370
C477        C  0.27448089  0.37838864  0.99956423    -0.33340
C478        C  0.24522512  0.37232503  0.98388552     0.35720
H479        H  0.24895069  0.39922340  0.85651691     0.16090
O480        O  0.30342023  0.41237513  0.87629509    -0.60830
H481        H  0.28165430  0.37262102  0.03953842     0.16100
O482        O  0.22642646  0.35920742  0.01978015    -0.60930
H483        H  0.22971964  0.33765914  0.01534152     0.43100
H484        H  0.30256369  0.43385263  0.88567587     0.43050
C485        C  0.04855623  0.33397141  0.92669817    -0.06010
C486        C  0.03638278  0.35779569  0.90131208    -0.33440
C487        C  0.00740916  0.36506072  0.91184088     0.35810
C488        C  0.99104014  0.34908119  0.95026114    -0.06370
C489        C  0.00250976  0.32368411  0.97185396    -0.33340
C490        C  0.03115735  0.31591662  0.95997704     0.35720
H491        H  0.04972227  0.37149618  0.87523767     0.16090
O492        O  0.49608169  0.38903584  0.88900388    -0.60830
H493        H  0.99006339  0.31114292  0.00104937     0.16100
O494        O  0.04279089  0.29224567  0.98490232    -0.60930
H495        H  0.05096456  0.30045469  0.01969344     0.43100
H496        H  0.48694961  0.38140549  0.85464814     0.43050
C497        C  0.06835383  0.16710169  0.80718063    -0.06010
C498        C  0.06619666  0.19230955  0.77658276    -0.33440
C499        C  0.07705862  0.21960913  0.79681683     0.35810
C500        C  0.09075538  0.22170677  0.84808622    -0.06370
C501        C  0.09029891  0.19696657  0.88086334    -0.33340
C502        C  0.07914125  0.16958548  0.86052846     0.35720
H503        H  0.05716685  0.19057458  0.73595753     0.16090
O504        O  0.07506855  0.24398023  0.76554475    -0.60830
H505        H  0.10063717  0.19826141  0.92041055     0.16100
O506        O  0.08076994  0.14508467  0.89147678    -0.60930
H507        H  0.10022125  0.13670787  0.88320327     0.43100
H508        H  0.08994539  0.24137617  0.73661047     0.43050
C509        C  0.13083167  0.41889483  0.81798902    -0.06010
C510        C  0.13162240  0.44461891  0.85174525    -0.33440
C511        C  0.12693341  0.47242031  0.83079034     0.35810
C512        C  0.12156414  0.47490394  0.77506319    -0.06370
C513        C  0.12056059  0.44914775  0.74144884    -0.33340
C514        C  0.12463407  0.42133163  0.76260482     0.35720
H515        H  0.13632365  0.44329244  0.89453946     0.16090
O516        O  0.12744932  0.49688744  0.86526828    -0.60830
H517        H  0.11538857  0.45037079  0.69880963     0.16100
O518        O  0.12173262  0.39667414  0.72894400    -0.60930
H519        H  0.10092537  0.38987001  0.73234550     0.43100
H520        H  0.14795218  0.50489390  0.86416947     0.43050
C521        C  0.13850470  0.32779089  0.57756201    -0.06010
C522        C  0.15562184  0.34957431  0.60627556    -0.33440
C523        C  0.15804843  0.34967939  0.66253139     0.35810
C524        C  0.14305947  0.32776109  0.69140725    -0.06370
C525        C  0.12439210  0.30702768  0.66333148    -0.33340
C526        C  0.12186642  0.30706142  0.60668326     0.35720
H527        H  0.16855072  0.36588285  0.58480736     0.16090
O528        O  0.17776225  0.36905902  0.68827438    -0.60830
H529        H  0.11276343  0.28996072  0.68519191     0.16100
O530        O  0.10477463  0.28561391  0.58025946    -0.60930
H531        H  0.11800868  0.26889152  0.57299259     0.43100
H532        H  0.17158028  0.38921548  0.67967496     0.43050
C533        C  0.13205605  0.31215082  0.20675693    -0.06010
C534        C  0.13233585  0.33841098  0.17821641    -0.33440
C535        C  0.13013021  0.33761563  0.12197260     0.35810
C536        C  0.12693459  0.31022078  0.09315534    -0.06370
C537        C  0.12435053  0.28404497  0.12197361    -0.33340
C538        C  0.12722035  0.28484876  0.17847797     0.35720
H539        H  0.13645067  0.35961233  0.19914903     0.16090
O540        O  0.13231297  0.36376275  0.09553016    -0.60830
H541        H  0.12160282  0.26280522  0.10056772     0.16100
O542        O  0.12685373  0.25883368  0.20543115    -0.60930
H543        H  0.10606552  0.25162252  0.20459891     0.43100
H544        H  0.11178558  0.37005668  0.09113808     0.43050
C545        C  0.19387183  0.24500713  0.49278275    -0.06010
C546        C  0.19942746  0.21590875  0.47530699    -0.33440
C547        C  0.20912438  0.19535071  0.51177313     0.35810
C548        C  0.21315771  0.20375408  0.56676288    -0.06370
C549        C  0.20510657  0.23213041  0.58500210    -0.33340
C550        C  0.19544978  0.25280771  0.54829357     0.35720
H551        H  0.19701284  0.20931995  0.43291271     0.16090
O552        O  0.21605011  0.16746266  0.49302041    -0.60830
H553        H  0.20897856  0.23927651  0.62677470     0.16100
O554        O  0.19033661  0.28130757  0.56598365    -0.60930
H555        H  0.17626843  0.27964614  0.59635884     0.43100
H556        H  0.23485621  0.16995090  0.47324060     0.43050
C557        C  0.27618695  0.26887781  0.18197459    -0.06010
C558        C  0.25444193  0.28601009  0.15890300    -0.33440
C559        C  0.23728619  0.30489610  0.19156458     0.35810
C560        C  0.24243823  0.30740166  0.24789500    -0.06370
C561        C  0.26650436  0.29289716  0.26935717    -0.33340
C562        C  0.28307940  0.27360657  0.23717159     0.35720
H563        H  0.24875324  0.28260484  0.11652035     0.16090
O564        O  0.21406019  0.31863375  0.16877503    -0.60830
H565        H  0.27113170  0.29466134  0.31238061     0.16100
O566        O  0.30434439  0.25753691  0.26107796    -0.60930
H567        H  0.32062716  0.27194672  0.27005250     0.43100
H568        H  0.19784199  0.30347214  0.16681763     0.43050
C569        C  0.25024709  0.38643617  0.41555441    -0.06010
C570        C  0.27342923  0.37718004  0.38247971    -0.33440
C571        C  0.30205891  0.38740118  0.39382317     0.35810
C572        C  0.30719518  0.40815800  0.43666640    -0.06370
C573        C  0.28388535  0.41870386  0.46767741    -0.33340
C574        C  0.25547341  0.40757448  0.45796718     0.35720
H575        H  0.26952461  0.36100088  0.34964470     0.16090
O576        O  0.32494792  0.37652191  0.36390068    -0.60830
H577        H  0.28796796  0.43427078  0.50142690     0.16100
O578        O  0.23291488  0.41761084  0.48978655    -0.60930
H579        H  0.23360883  0.40590552  0.52291954     0.43100
H580        H  0.33043385  0.35812881  0.38161354     0.43050
C581        C  0.06930824  0.35725693  0.41338491    -0.06010
C582        C  0.05364736  0.37041954  0.37236058    -0.33440
C583        C  0.02600186  0.38199201  0.38355772     0.35810
C584        C  0.01378197  0.37938832  0.43558073    -0.06370
C585        C  0.02874760  0.36462597  0.47521664    -0.33340
C586        C  0.05666151  0.35431946  0.46496073     0.35720
H587        H  0.06332021  0.37282005  0.33268827     0.16090
O588        O  0.51036173  0.39434537  0.34265674    -0.60830
H589        H  0.01940045  0.36239583  0.51521877     0.16100
O590        O  0.07156989  0.34163131  0.50594890    -0.60930
H591        H  0.08030310  0.35845331  0.52796880     0.43100
H592        H  0.01897666  0.41588273  0.34322393     0.43050
C593        C  0.10671668  0.22312327  0.35478738    -0.06010
C594        C  0.12417879  0.19856110  0.36155863    -0.33440
C595        C  0.11775335  0.17176282  0.33387501     0.35810
C596        C  0.09412422  0.16945657  0.29692116    -0.06370
C597        C  0.07633908  0.19399650  0.29043280    -0.33340
C598        C  0.08239025  0.22073370  0.31956448     0.35720
H599        H  0.14340952  0.20041582  0.38753470     0.16090
O600        O  0.13544312  0.14822113  0.34165783    -0.60830
H601        H  0.05750430  0.19226587  0.26353548     0.16100
O602        O  0.06489869  0.24449251  0.31243345    -0.60930
H603        H  0.07502427  0.25647385  0.28488279     0.43100
H604        H  0.12867376  0.13968631  0.37603923     0.43050
C605        C  0.14973369  0.43550290  0.32227998    -0.06010
C606        C  0.15703558  0.44974335  0.27424864    -0.33440
C607        C  0.14370117  0.47613658  0.26101891     0.35810
C608        C  0.12230787  0.48839828  0.29544772    -0.06370
C609        C  0.11595069  0.47510496  0.34446310    -0.33340
C610        C  0.12966567  0.44910556  0.35840012     0.35720
H611        H  0.17231165  0.43983898  0.24587061     0.16090
O612        O  0.14971097  0.48823893  0.21203251    -0.60830
H613        H  0.09929559  0.48420254  0.37099571     0.16100
O614        O  0.12194834  0.43638888  0.40609058    -0.60930
H615        H  0.10403148  0.42405807  0.39757562     0.43100
H616        H  0.16569463  0.50321850  0.21950610     0.43050
O617        O  0.15892465  0.89500164  0.38003564    -0.80680
O618        O  0.14450526  0.75945111  0.35686328    -0.80700
O619        O  0.13823959  0.83653036  0.29221407    -0.80710
O620        O  0.10592616  0.82672503  0.37605713    -0.80650
O621        O  0.16210199  0.79525840  0.27660222    -0.80780
O622        O  0.11884753  0.86167404  0.43663813    -0.80700
O623        O  0.10464407  0.76896294  0.40670915    -0.80680
O624        O  0.16956425  0.88917993  0.29230527    -0.80720
C625        C  0.16049145  0.90533975  0.33173816     1.09010
C626        C  0.11863705  0.75200022  0.37420087     1.08890
C627        C  0.14308791  0.81375770  0.26274614     1.09030
C628        C  0.09976523  0.84904002  0.40558217     1.08910
O629        O  0.16511718  0.83669634  0.49867741    -0.80680
O630        O  0.21845461  0.80802500  0.33233338    -0.80760
O631        O  0.21099651  0.87067155  0.35849743    -0.80690
O632        O  0.15761993  0.77377532  0.45482925    -0.80670
O633        O  0.20000351  0.77296981  0.41382756    -0.80730
O634        O  0.20477793  0.86811151  0.44547301    -0.80690
O635        O  0.12273341  0.81381254  0.48593044    -0.80650
O636        O  0.20007067  0.83626755  0.27291222    -0.80720
Co637      Co  0.16269990  0.86242212  0.43742877     1.51530
Co638      Co  0.18125489  0.78683449  0.34806857     1.51690
Co639      Co  0.17274204  0.85369486  0.32986914     1.51570
Co640      Co  0.13356365  0.80025802  0.40949182     1.51470
O641        O  0.16786577  0.82501584  0.38803652    -1.42610
C642        C  0.14192395  0.82568684  0.51803651     1.08940
C643        C  0.22009466  0.81896637  0.28631467     1.09030
C644        C  0.22069533  0.87411819  0.40602722     1.08960
C645        C  0.18383946  0.76571935  0.45270809     1.08940
O646        O  0.14138749  0.82952976  0.00817762    -0.80680
O647        O  0.20146580  0.79522882  0.84626196    -0.80700
O648        O  0.16828885  0.78618361  0.96074534    -0.80710
O649        O  0.19920117  0.87719145  0.86263050    -0.80650
O650        O  0.17064988  0.75289832  0.89650709    -0.80780
O651        O  0.18723438  0.85668562  0.94048006    -0.80700
O652        O  0.20176772  0.83294674  0.79916217    -0.80680
O653        O  0.11493354  0.78746981  0.00732096    -0.80720
C654        C  0.12720581  0.80900294  0.03345407     1.09010
C655        C  0.21248275  0.80860300  0.80754019     1.08890
C656        C  0.17659683  0.76128145  0.94455726     1.09030
C657        C  0.20565619  0.87172813  0.91134502     1.08910
O658        O  0.13816164  0.88711639  0.89112959    -0.80680
O659        O  0.12237543  0.76074871  0.82439238    -0.80760
O660        O  0.08884647  0.80415700  0.91602617    -0.80690
O661        O  0.15453778  0.84652964  0.78136737    -0.80670
O662        O  0.15414541  0.79756992  0.76388257    -0.80730
O663        O  0.09796521  0.85093526  0.93481408    -0.80690
O664        O  0.14819189  0.86940312  0.81150227    -0.80650
O665        O  0.11603612  0.75491727  0.91126497    -0.80720
Co666      Co  0.14192071  0.85073624  0.93512579     1.51530
Co667      Co  0.16133180  0.77898229  0.83482926     1.51690
Co668      Co  0.12840370  0.79629641  0.93717163     1.51570
Co669      Co  0.17264430  0.84438053  0.85636109     1.51470
O670        O  0.14275200  0.81484599  0.87302381    -1.42610
C671        C  0.13844080  0.89034719  0.84077630     1.08940
C672        C  0.10990969  0.74751887  0.86236860     1.09030
C673        C  0.07994719  0.82970696  0.92405150     1.08960
C674        C  0.15019994  0.82376872  0.74883341     1.08940
O675        O  0.44973846  0.87934481  0.95042277    -0.80680
O676        O  0.33166065  0.90690895  0.02667346    -0.80700
O677        O  0.40116325  0.85138410  0.00469863    -0.80710
O678        O  0.39362902  0.90130954  0.88237206    -0.80650
O679        O  0.36992922  0.86609046  0.06855704    -0.80780
O680        O  0.43598704  0.92440162  0.89419079    -0.80700
O681        O  0.34487880  0.89510991  0.94370709    -0.80680
O682        O  0.46027016  0.85832392  0.02630300    -0.80720
C683        C  0.46552657  0.86180418  0.97673450     1.09010
C684        C  0.32533055  0.89715774  0.97930317     1.08890
C685        C  0.38132836  0.84536552  0.03884241     1.09030
C686        C  0.41787252  0.91024601  0.86345518     1.08910
O687        O  0.42840603  0.96291288  0.98965274    -0.80680
O688        O  0.40475418  0.91849793  0.11270605    -0.80760
O689        O  0.45875478  0.91778680  0.05142985    -0.80690
O690        O  0.35048692  0.95723874  0.98120979    -0.80670
O691        O  0.37001956  0.95490173  0.06272744    -0.80730
O692        O  0.47889485  0.93118652  0.97478707    -0.80690
O693        O  0.39966826  0.96337394  0.91920863    -0.80650
O694        O  0.42291765  0.87569717  0.10280051    -0.80720
Co695      Co  0.43773446  0.92113339  0.97521220     1.51530
Co696      Co  0.37071832  0.91164658  0.06445904     1.51690
Co697      Co  0.42842013  0.88446504  0.02402746     1.51570
Co698      Co  0.37340166  0.92770613  0.93524165     1.51470
O699        O  0.39673181  0.91133046  0.99814717    -1.42610
C700        C  0.41961856  0.97588788  0.94866133     1.08940
C701        C  0.41457150  0.89616572  0.13416321     1.09030
C702        C  0.98073728  0.93186672  0.02465994     1.08960
C703        C  0.35823911  0.96957244  0.02643260     1.08940
O704        O  0.48194499  0.91953861  0.43722233    -0.80680
O705        O  0.34961353  0.89404139  0.47984589    -0.80700
O706        O  0.42819955  0.84072606  0.53326603    -0.80710
O707        O  0.38791936  0.91409420  0.38934393    -0.80650
O708        O  0.38251777  0.85752078  0.54771919    -0.80780
O709        O  0.43292981  0.90124247  0.39313598    -0.80700
O710        O  0.34895215  0.93958781  0.45257674    -0.80680
O711        O  0.46659234  0.87788521  0.47717061    -0.80720
C712        C  0.48602571  0.89299057  0.45005999     1.09010
C713        C  0.33673608  0.91430113  0.45646275     1.08890
C714        C  0.40123927  0.83598591  0.54536583     1.09030
C715        C  0.40932629  0.90236095  0.36689538     1.08910
O716        O  0.43898387  0.96375418  0.42688312    -0.80680
O717        O  0.39145719  0.91056430  0.61627694    -0.80760
O718        O  0.45678070  0.90014947  0.56597231    -0.80690
O719        O  0.39358967  0.97136258  0.50939244    -0.80670
O720        O  0.35933488  0.94624125  0.55452223    -0.80730
O721        O  0.45905018  0.94381931  0.52798693    -0.80690
O722        O  0.39289998  0.97310881  0.40005866    -0.80650
O723        O  0.43226287  0.88706479  0.59731897    -0.80720
Co724      Co  0.44372457  0.92316300  0.46324714     1.51530
Co725      Co  0.37240632  0.90301428  0.54635690     1.51690
Co726      Co  0.42551237  0.88033215  0.51459534     1.51570
Co727      Co  0.39259088  0.94266066  0.44980715     1.51470
O728        O  0.40679969  0.91694208  0.50166073    -1.42610
C729        C  0.42026184  0.97979311  0.40201486     1.08940
C730        C  0.41491987  0.89960995  0.63189946     1.09030
C731        C  0.46667037  0.92730307  0.56523571     1.08960
C732        C  0.37300896  0.97071523  0.54362994     1.08940
O733        O  0.24004108  0.69193504  0.14266503    -0.80680
O734        O  0.34348185  0.61220844  0.05657707    -0.80700
O735        O  0.31423464  0.70502483  0.02131270    -0.80710
O736        O  0.28387214  0.61778076  0.19169749    -0.80650
O737        O  0.31946011  0.65779877  0.00938259    -0.80780
O738        O  0.26388053  0.63760582  0.12208790    -0.80700
O739        O  0.33399012  0.59717006  0.13962761    -0.80680
O740        O  0.26611238  0.68722263  0.06918645    -0.80720
C741        C  0.24167214  0.69350530  0.09151999     1.09010
C742        C  0.33931714  0.59196980  0.08997457     1.08890
C743        C  0.31240739  0.68197956  0.99057307     1.09030
C744        C  0.26214424  0.61938184  0.15899933     1.08910
O745        O  0.27530570  0.66968251  0.22674955    -0.80680
O746        O  0.36479695  0.69964055  0.05726936    -0.80760
O747        O  0.28993382  0.74127506  0.10103967    -0.80690
O748        O  0.37106202  0.64136685  0.19204560    -0.80670
O749        O  0.38672673  0.65024033  0.10921371    -0.80730
O750        O  0.29158744  0.71862416  0.17711566    -0.80690
O751        O  0.32246387  0.66642039  0.23824078    -0.80650
O752        O  0.34309521  0.71824606  0.12796900    -0.80720
Co753      Co  0.27975407  0.67693519  0.14616408     1.51530
Co754      Co  0.35118603  0.65564447  0.06281250     1.51690
Co755      Co  0.30546133  0.70162352  0.10168949     1.51570
Co756      Co  0.32730629  0.63317095  0.18602851     1.51470
O757        O  0.32061099  0.66188137  0.12414018    -1.42210
C758        C  0.29745612  0.67025377  0.25823306     1.08940
C759        C  0.36081779  0.72167725  0.09010112     1.09030
C760        C  0.28685704  0.74237282  0.15190190     1.08960
C761        C  0.39192570  0.64463001  0.15828801     1.08940
O762        O  0.23451507  0.68695188  0.64955223    -0.80680
O763        O  0.34496343  0.60912056  0.56820398    -0.80700
O764        O  0.30567550  0.69879196  0.52272315    -0.80710
O765        O  0.27448704  0.61490132  0.69974262    -0.80650
O766        O  0.31545479  0.65184400  0.51279036    -0.80780
O767        O  0.25710359  0.63251384  0.62701235    -0.80700
O768        O  0.31577057  0.59217330  0.63256412    -0.80680
O769        O  0.25879035  0.68145337  0.57425365    -0.80720
C770        C  0.23515123  0.68864818  0.59836782     1.09010
C771        C  0.33269176  0.58797020  0.59305886     1.08890
C772        C  0.30717469  0.67542266  0.49235342     1.09030
C773        C  0.25331411  0.61656690  0.66672840     1.08910
O774        O  0.27356454  0.66590831  0.73136723    -0.80680
O775        O  0.35703822  0.69697785  0.55766818    -0.80760
O776        O  0.28069256  0.73662154  0.60795836    -0.80690
O777        O  0.36187474  0.62582652  0.68364361    -0.80670
O778        O  0.37923539  0.65466030  0.61983357    -0.80730
O779        O  0.28780214  0.71196309  0.68032190    -0.80690
O780        O  0.32008025  0.65666220  0.74288332    -0.80650
O781        O  0.33579550  0.71571656  0.62815451    -0.80720
Co782      Co  0.27424761  0.67161423  0.65006661     1.51530
Co783      Co  0.34621339  0.65336802  0.56863482     1.51690
Co784      Co  0.29817425  0.69702496  0.60408737     1.51570
Co785      Co  0.31789630  0.62541169  0.68538991     1.51470
O786        O  0.31420077  0.65749188  0.62741915    -1.42610
C787        C  0.29624611  0.66600895  0.76164824     1.08940
C788        C  0.35412706  0.71862946  0.59115442     1.09030
C789        C  0.27850818  0.73521380  0.65920403     1.08960
C790        C  0.38317126  0.63799873  0.65880798     1.08940
O791        O  0.07603262  0.00379712  0.26632568    -0.80680
O792        O  0.07440948  0.63751635  0.22484935    -0.80700
O793        O  0.13187057  0.55187329  0.16348902    -0.80710
O794        O  0.07461985  0.57076762  0.35494188    -0.80650
O795        O  0.11894072  0.59595062  0.19664168    -0.80780
O796        O  0.04460213  0.53180559  0.34255381    -0.80700
O797        O  0.08809814  0.61779699  0.29776002    -0.80680
O798        O  0.11303900  0.53639823  0.26371340    -0.80720
C799        C  0.10281000  0.01116148  0.27594270     1.09010
C800        C  0.08594509  0.64050268  0.27107655     1.08890
C801        C  0.13925879  0.57835028  0.17798760     1.09030
C802        C  0.06354319  0.54676445  0.37109230     1.08910
O803        O  0.00375187  0.55044374  0.25837725    -0.80680
O804        O  0.07924904  0.61481185  0.12149398    -0.80760
O805        O  0.08152923  0.01342252  0.16754739    -0.80690
O806        O  0.02427791  0.62041716  0.26407131    -0.80670
O807        O  0.02861075  0.60150931  0.18036643    -0.80730
O808        O  0.03534661  0.02213421  0.18340050    -0.80690
O809        O  0.01322831  0.57593577  0.33243164    -0.80650
O810        O  0.07834645  0.56582602  0.12618485    -0.80720
Co811      Co  0.04052207  0.52910526  0.26077227     1.51530
Co812      Co  0.07190782  0.59676086  0.18890678     1.51690
Co813      Co  0.09519409  0.55379324  0.19992787     1.51570
Co814      Co  0.05139428  0.59528406  0.30899153     1.51470
O815        O  0.06189261  0.56762218  0.24649764    -1.42610
C816        C  0.99523897  0.56047239  0.30337689     1.08940
C817        C  0.07806451  0.58933805  0.09838355     1.09030
C818        C  0.05442462  0.00848264  0.15667709     1.08960
C819        C  0.01355783  0.61521836  0.21638759     1.08940
O820        O  0.10250327  0.02412478  0.78245761    -0.80680
O821        O  0.07643604  0.63139958  0.73859607    -0.80700
O822        O  0.12240935  0.56534801  0.72691137    -0.80710
O823        O  0.07035599  0.57328048  0.84410004    -0.80650
O824        O  0.11149572  0.59946555  0.66968046    -0.80780
O825        O  0.06138934  0.52600249  0.86121908    -0.80700
O826        O  0.04281545  0.62133439  0.80012944    -0.80680
O827        O  0.11459440  0.00634016  0.70121680    -0.80720
C828        C  0.11314374  0.00310195  0.75204270     1.09010
C829        C  0.06215035  0.63826563  0.78068615     1.08890
C830        C  0.13030811  0.58624397  0.69749901     1.09030
C831        C  0.06952906  0.55211794  0.87761048     1.08910
O832        O  0.01497741  0.53901566  0.79878901    -0.80680
O833        O  0.05920292  0.57651543  0.61378946    -0.80760
O834        O  0.05758852  0.01185224  0.67478933    -0.80690
O835        O  0.00384465  0.58386062  0.74129859    -0.80670
O836        O  0.02412158  0.61236185  0.67948274    -0.80730
O837        O  0.04569776  0.99832512  0.75546605    -0.80690
O838        O  0.01031360  0.57869854  0.85047686    -0.80650
O839        O  0.09621932  0.54684692  0.62605034    -0.80720
Co840      Co  0.05951475  0.53731556  0.78753471     1.51530
Co841      Co  0.06728146  0.60277003  0.67840610     1.51690
Co842      Co  0.08917500  0.53864010  0.70327044     1.51570
Co843      Co  0.03749389  0.57825530  0.78937308     1.51470
O844        O  0.06081437  0.56675287  0.72422720    -1.42610
C845        C  0.50234601  0.55204233  0.83978733     1.08940
C846        C  0.07680304  0.55723418  0.59597894     1.09030
C847        C  0.04352933  0.99467536  0.70482483     1.08960
C848        C  0.00160330  0.60147249  0.70320648     1.08940
C849        C  0.07509689  0.54732828  0.53925881    -0.06010
C850        C  0.09986601  0.55080568  0.50644400    -0.33440
C851        C  0.09721634  0.54712554  0.45041014     0.35810
C852        C  0.06961907  0.53942332  0.42714585    -0.06370
C853        C  0.04593075  0.53192817  0.46063586    -0.33340
C854        C  0.04839934  0.53637716  0.51665462     0.35720
H855        H  0.12067726  0.55859317  0.52388197     0.16090
O856        O  0.12100391  0.55366964  0.41851592    -0.60830
H857        H  0.02478356  0.52534708  0.44324430     0.16100
O858        O  0.02421849  0.53170503  0.54864145    -0.60930
H859        H  0.02582189  0.51117468  0.56098559     0.43100
H860        H  0.12999078  0.53435145  0.40992286     0.43050
C861        C  0.07346238  0.55995194  0.93482694    -0.06010
C862        C  0.04842020  0.55874517  0.96747777    -0.33440
C863        C  0.04879200  0.57219107  0.01915109     0.35810
C864        C  0.07499806  0.58510119  0.03998567    -0.06370
C865        C  0.10009319  0.58663010  0.00730358    -0.33340
C866        C  0.09918004  0.57478031  0.95420860     0.35720
H867        H  0.02806460  0.54870547  0.95187713     0.16090
O868        O  0.02364574  0.57243476  0.04969611    -0.60830
H869        H  0.12053215  0.59617860  0.02348371     0.16100
O870        O  0.12340693  0.57765501  0.92170160    -0.60930
H871        H  0.13432662  0.55921661  0.92596367     0.43100
H872        H  0.50990791  0.56980400  0.03817784     0.43050
C873        C  0.47139672  0.61041272  0.68982565    -0.06010
C874        C  0.46691044  0.63783181  0.66654980    -0.33440
C875        C  0.43838579  0.64778421  0.65800163     0.35810
C876        C  0.41366279  0.63021700  0.67273379    -0.06370
C877        C  0.41825198  0.60278031  0.69568063    -0.33340
C878        C  0.44658131  0.59272880  0.70374415     0.35720
H879        H  0.48554896  0.65193451  0.65606444     0.16090
O880        O  0.43500570  0.67471262  0.63526205    -0.60830
H881        H  0.39972995  0.58845257  0.70593855     0.16100
O882        O  0.44964583  0.56537708  0.72510745    -0.60930
H883        H  0.45103092  0.55141359  0.69340938     0.43100
H884        H  0.43305844  0.68903972  0.66627702     0.43050
C885        C  0.16207848  0.59304529  0.69151333    -0.06010
C886        C  0.17557650  0.61608855  0.72250525    -0.33440
C887        C  0.20575877  0.62274891  0.71699037     0.35810
C888        C  0.22296332  0.60624758  0.67983612    -0.06370
C889        C  0.20943420  0.58280496  0.64950073    -0.33340
C890        C  0.17935814  0.57578940  0.65596448     0.35720
H891        H  0.16264994  0.62914276  0.75075802     0.16090
O892        O  0.21814648  0.64573689  0.74761101    -0.60830
H893        H  0.22212196  0.57018632  0.62022746     0.16100
O894        O  0.16682136  0.55254565  0.62615847    -0.60930
H895        H  0.16824101  0.53518390  0.64934250     0.43100
H896        H  0.20871101  0.66384747  0.73540944     0.43050
C897        C  0.29454546  0.67331913  0.82019654    -0.06010
C898        C  0.30652278  0.70023938  0.84193015    -0.33440
C899        C  0.31007604  0.70481425  0.89826888     0.35810
C900        C  0.30257091  0.68183602  0.93321683    -0.06370
C901        C  0.28900197  0.65569778  0.91118687    -0.33340
C902        C  0.28487869  0.65143601  0.85539651     0.35720
H903        H  0.31418086  0.71722619  0.81505689     0.16090
O904        O  0.32329177  0.73061795  0.91807529    -0.60830
H905        H  0.28283716  0.63776531  0.93723118     0.16100
O906        O  0.27381290  0.62468932  0.83532001    -0.60930
H907        H  0.25221405  0.62687642  0.83423108     0.43100
H908        H  0.30688170  0.74391325  0.92681767     0.43050
C909        C  0.29520786  0.67101091  0.31807030    -0.06010
C910        C  0.28477062  0.69560133  0.34796414    -0.33440
C911        C  0.28797000  0.69766932  0.40501349     0.35810
C912        C  0.30142193  0.67474204  0.43265711    -0.06370
C913        C  0.31069556  0.64987143  0.40210268    -0.33340
C914        C  0.30811716  0.64811999  0.34593031     0.35720
H915        H  0.27534591  0.71372209  0.32703160     0.16090
O916        O  0.27883642  0.72248172  0.43289304    -0.60830
H917        H  0.32108412  0.63177111  0.42151590     0.16100
O918        O  0.31866389  0.62380218  0.31821657    -0.60930
H919        H  0.34022299  0.62745435  0.31587868     0.43100
H920        H  0.25709680  0.72060653  0.43333207     0.43050
C921        C  0.42364050  0.64025342  0.17552450    -0.06010
C922        C  0.44614929  0.63937649  0.13624669    -0.33440
C923        C  0.47526467  0.63200661  0.14917750     0.35810
C924        C  0.48322039  0.62566132  0.20273306    -0.06370
C925        C  0.46111191  0.62757912  0.24255038    -0.33340
C926        C  0.43181153  0.63453344  0.22950432     0.35720
H927        H  0.44109447  0.64367713  0.09449898     0.16090
O928        O  0.49597843  0.63166823  0.10896833    -0.60830
H929        H  0.46631042  0.62273135  0.28400964     0.16100
O930        O  0.41122639  0.63472967  0.26991657    -0.60930
H931        H  0.41153922  0.65540430  0.28478393     0.43100
H932        H  0.49224291  0.61275818  0.08824115     0.43050
C933        C  0.17131133  0.58809340  0.17563414    -0.06010
C934        C  0.19062987  0.57344566  0.13962723    -0.33440
C935        C  0.22061388  0.58223008  0.13574918     0.35810
C936        C  0.23247611  0.60541176  0.16942421    -0.06370
C937        C  0.21344650  0.61961173  0.20625421    -0.33340
C938        C  0.18328203  0.61143517  0.20912705     0.35720
H939        H  0.18226041  0.55557225  0.11303339     0.16090
O940        O  0.23786643  0.56870880  0.09737953    -0.60830
H941        H  0.22173955  0.63810310  0.23148063     0.16100
O942        O  0.16582812  0.62629108  0.24540176    -0.60930
H943        H  0.15950710  0.64402118  0.22648906     0.43100
H944        H  0.24774471  0.55281085  0.11643714     0.43050
C945        C  0.48603353  0.93959323  0.60824100    -0.06010
C946        C  0.47456628  0.95854586  0.64840420    -0.33440
C947        C  0.99322074  0.97465111  0.68462742     0.35810
C948        C  0.02380935  0.97200741  0.67978141    -0.06370
C949        C  0.03520755  0.95188342  0.64140290    -0.33340
C950        C  0.01640190  0.93541363  0.60629657     0.35720
H951        H  0.45124258  0.96240893  0.64953233     0.16090
O952        O  0.48160468  0.99399804  0.72172476    -0.60830
H953        H  0.05878104  0.95017514  0.63672593     0.16100
O954        O  0.02808019  0.91697841  0.56724363    -0.60930
H955        H  0.03183159  0.92958589  0.53581991     0.43100
H956        H  0.47618534  0.98212213  0.75335226     0.43050
C957        C  0.43151774  0.50633848  0.37612548    -0.06010
C958        C  0.44460947  0.52933793  0.40805693    -0.33440
C959        C  0.46254414  0.55098033  0.38439299     0.35810
C960        C  0.46817280  0.54892570  0.32834787    -0.06370
C961        C  0.45176904  0.02808828  0.29595699    -0.33340
C962        C  0.43374485  0.00665530  0.31963114     0.35720
H963        H  0.44237238  0.52949248  0.45168051     0.16090
O964        O  0.47563540  0.57300645  0.41654379    -0.60830
H965        H  0.45513065  0.02645105  0.25259195     0.16100
O966        O  0.42063145  0.98456487  0.28767340    -0.60930
H967        H  0.43519678  0.96868281  0.28481635     0.43100
H968        H  0.49019357  0.56313686  0.43903024     0.43050
C969        C  0.36834304  0.74832804  0.58299357    -0.06010
C970        C  0.39151272  0.75169612  0.54597131    -0.33440
C971        C  0.40312396  0.77997249  0.53435775     0.35810
C972        C  0.39089106  0.80559827  0.55844649    -0.06370
C973        C  0.36815673  0.80220158  0.59596209    -0.33340
C974        C  0.35727276  0.77412587  0.60904145     0.35720
H975        H  0.40045447  0.73240016  0.52546293     0.16090
O976        O  0.42537991  0.78232295  0.49731315    -0.60830
H977        H  0.35875308  0.82151086  0.61567617     0.16100
O978        O  0.33482894  0.77246871  0.64579499    -0.60930
H979        H  0.34458279  0.77212112  0.68164273     0.43100
H980        H  0.44369447  0.77964696  0.51813301     0.43050
C981        C  0.34159886  0.55747671  0.57999057    -0.06010
C982        C  0.37118038  0.55329997  0.56740026    -0.33440
C983        C  0.38207676  0.52501191  0.56072874     0.35810
C984        C  0.36304801  0.49984811  0.56420175    -0.06370
C985        C  0.33354211  0.50385878  0.57862218    -0.33340
C986        C  0.32282998  0.53249439  0.58711065     0.35720
H987        H  0.38631455  0.57214675  0.56436078     0.16090
O988        O  0.41143800  0.52230232  0.54965846    -0.60830
H989        H  0.31853439  0.98491612  0.58132675     0.16100
O990        O  0.29400521  0.53580198  0.60159307    -0.60930
H991        H  0.28327755  0.53791198  0.56707767     0.43100
H992        H  0.42087742  0.51941600  0.58518120     0.43050
C993        C  0.42261520  0.90847228  0.80449770    -0.06010
C994        C  0.43115850  0.88210132  0.77794479    -0.33440
C995        C  0.43127236  0.87951527  0.72096075     0.35810
C996        C  0.42215041  0.90329948  0.69025593    -0.06370
C997        C  0.41467880  0.92988137  0.71734065    -0.33340
C998        C  0.41528675  0.93270007  0.77371435     0.35720
H999        H  0.43669531  0.86322925  0.80134747     0.16090
O1000       O  0.43834248  0.85310813  0.69597051    -0.60830
H1001       H  0.40710402  0.94828357  0.69468136     0.16100
O1002       O  0.40726630  0.95886734  0.79851761    -0.60930
H1003       H  0.38558178  0.95721923  0.80208662     0.43100
H1004       H  0.41943739  0.84177503  0.69163594     0.43050
C1005       C  0.41239459  0.89346243  0.19351136    -0.06010
C1006       C  0.38889989  0.90714379  0.21968729    -0.33440
C1007       C  0.38619202  0.90755318  0.27579590     0.35810
C1008       C  0.40778117  0.89457658  0.30791328    -0.06370
C1009       C  0.43072794  0.87955207  0.28156165    -0.33340
C1010       C  0.43292370  0.87864772  0.22463327     0.35720
H1011       H  0.37261433  0.91831365  0.19646409     0.16090
O1012       O  0.36385077  0.92339568  0.29880257    -0.60830
H1013       H  0.44770466  0.86967428  0.30512552     0.16100
O1014       O  0.45591707  0.86455647  0.20020668    -0.60930
H1015       H  0.47186613  0.87989841  0.19805455     0.43100
H1016       H  0.34549553  0.91202965  0.28924889     0.43050
C1017       C  0.00355156  0.95046490  0.05307008    -0.06010
C1018       C  0.02541544  0.93835994  0.08524486    -0.33440
C1019       C  0.04540338  0.95709483  0.11514481     0.35810
C1020       C  0.04326228  0.98808206  0.11308915    -0.06370
C1021       C  0.02224024  0.99959319  0.07914595    -0.33340
C1022       C  0.49286138  0.97999389  0.06755393     0.35720
H1023       H  0.02641886  0.91456960  0.08839280     0.16090
O1024       O  0.06546372  0.94503514  0.14873051    -0.60830
H1025       H  0.01904656  0.52308881  0.07977165     0.16100
O1026       O  0.46548299  0.98941897  0.05487358    -0.60930
H1027       H  0.46897064  0.50498366  0.02747471     0.43100
H1028       H  0.05515355  0.94284020  0.18372290     0.43050
C1029       C  0.43967153  0.49796877  0.92456070    -0.06010
C1030       C  0.46556020  0.98688559  0.90305835    -0.33440
C1031       C  0.48578427  0.00461935  0.87711886     0.35810
C1032       C  0.48061363  0.53485379  0.87116124    -0.06370
C1033       C  0.45494495  0.54685345  0.89388018    -0.33340
C1034       C  0.43415730  0.52831168  0.92005272     0.35720
H1035       H  0.47042803  0.96391320  0.90494548     0.16090
O1036       O  0.00912781  0.99148489  0.85234766    -0.60830
H1037       H  0.45066934  0.57012287  0.89000067     0.16100
O1038       O  0.40904311  0.53998173  0.94129166    -0.60930
H1039       H  0.39386399  0.53642996  0.91280374     0.43100
H1040       H  0.02094456  0.98619430  0.88415589     0.43050
C1041       C  0.37018279  0.75282319  0.07811004    -0.06010
C1042       C  0.37708227  0.76061552  0.02494740    -0.33440
C1043       C  0.37979670  0.79054764  0.01097767     0.35810
C1044       C  0.37526480  0.81354421  0.05019295    -0.06370
C1045       C  0.36898139  0.80574760  0.10336637    -0.33340
C1046       C  0.36666486  0.77597706  0.11754536     0.35720
H1047       H  0.37935264  0.74349635  0.99357337     0.16090
O1048       O  0.38667463  0.79702138  0.95865729    -0.60830
H1049       H  0.36659884  0.82285191  0.13476909     0.16100
O1050       O  0.36130110  0.76973805  0.17058437    -0.60930
H1051       H  0.34114990  0.77652659  0.17795003     0.43100
H1052       H  0.36749357  0.79889810  0.94020713     0.43050
C1053       C  0.35359129  0.50152785  0.03861241    -0.06010
C1054       C  0.32795194  0.51538055  0.02210139    -0.33440
C1055       C  0.32285898  0.54503143  0.03817143     0.35810
C1056       C  0.34347482  0.56101482  0.07121007    -0.06370
C1057       C  0.36942688  0.54753420  0.08591918    -0.33340
C1058       C  0.37463321  0.51819510  0.06986545     0.35720
H1059       H  0.31154906  0.00300718  0.99806828     0.16090
O1060       O  0.29724284  0.55776263  0.02328221    -0.60830
H1061       H  0.38585446  0.55989989  0.10998383     0.16100
O1062       O  0.40087530  0.50623254  0.08357191    -0.60930
H1063       H  0.39875752  0.50098059  0.12199627     0.43100
H1064       H  0.30188887  0.56763261  0.98902981     0.43050
C1065       C  0.19039011  0.74123192  0.98270181    -0.06010
C1066       C  0.18763120  0.74670625  0.03889006    -0.33440
C1067       C  0.20124333  0.72876014  0.07599848     0.35810
C1068       C  0.21854940  0.70530073  0.05710070    -0.06370
C1069       C  0.21962086  0.69863247  0.00112045    -0.33340
C1070       C  0.20566491  0.71621825  0.96409909     0.35720
H1071       H  0.17550168  0.76544568  0.05424284     0.16090
O1072       O  0.19982698  0.73615689  0.13017692    -0.60830
H1073       H  0.23301263  0.68079919  0.98563849     0.16100
O1074       O  0.20906522  0.71002118  0.90978861    -0.60930
H1075       H  0.19378925  0.69456732  0.90048962     0.43100
H1076       H  0.18151261  0.72627486  0.14297018     0.43050
C1077       C  0.23197278  0.79289442  0.76936268    -0.06010
C1078       C  0.23475050  0.76290985  0.77800120    -0.33440
C1079       C  0.24893309  0.74467942  0.74154468     0.35810
C1080       C  0.26277645  0.75623762  0.69536627    -0.06370
C1081       C  0.26033423  0.78655894  0.68579650    -0.33340
C1082       C  0.24460595  0.80494719  0.72242692     0.35720
H1083       H  0.22434561  0.75257364  0.81224791     0.16090
O1084       O  0.24645742  0.71484672  0.74909072    -0.60830
H1085       H  0.27028185  0.79583801  0.65018512     0.16100
O1086       O  0.24175458  0.83430862  0.71209045    -0.60930
H1087       H  0.22631804  0.83470754  0.68381180     0.43100
H1088       H  0.25327185  0.71175833  0.78650871     0.43050
C1089       C  0.23556719  0.87967302  0.93175215    -0.06010
C1090       C  0.25563479  0.89321296  0.89660606    -0.33440
C1091       C  0.28474733  0.89883869  0.91192673     0.35810
C1092       C  0.29453680  0.89099741  0.96339928    -0.06370
C1093       C  0.27448058  0.87838934  0.99953561    -0.33340
C1094       C  0.24522426  0.87232512  0.98386205     0.35720
H1095       H  0.24894536  0.89921481  0.85648654     0.16090
O1096       O  0.30341567  0.91236744  0.87625514    -0.60830
H1097       H  0.28165519  0.87262466  0.03951072     0.16100
O1098       O  0.22642680  0.85921045  0.01976224    -0.60930
H1099       H  0.22971918  0.83766186  0.01532765     0.43100
H1100       H  0.30255857  0.93384556  0.88563009     0.43050
C1101       C  0.04855165  0.83397573  0.92669577    -0.06010
C1102       C  0.03638073  0.85780285  0.90131393    -0.33440
C1103       C  0.00740738  0.86506946  0.91184153     0.35810
C1104       C  0.99103595  0.84908859  0.95025654    -0.06370
C1105       C  0.00250305  0.82368919  0.97184522    -0.33340
C1106       C  0.03115033  0.81592008  0.95996909     0.35720
H1107       H  0.04972199  0.87150408  0.87524366     0.16090
O1108       O  0.49606987  0.88901779  0.88900102    -0.60830
H1109       H  0.99005478  0.81114697  0.00103657     0.16100
O1110       O  0.04278108  0.79224623  0.98488977    -0.60930
H1111       H  0.05095497  0.80045229  0.01968283     0.43100
H1112       H  0.48694751  0.88138615  0.85463759     0.43050
C1113       C  0.06835374  0.66709760  0.80717964    -0.06010
C1114       C  0.06619403  0.69230530  0.77658214    -0.33440
C1115       C  0.07705321  0.71960584  0.79681671     0.35810
C1116       C  0.09074981  0.72170469  0.84808621    -0.06370
C1117       C  0.09029579  0.69696436  0.88086300    -0.33340
C1118       C  0.07914083  0.66958228  0.86052764     0.35720
H1119       H  0.05716432  0.69056960  0.73595687     0.16090
O1120       O  0.07506085  0.74397678  0.76554482    -0.60830
H1121       H  0.10063406  0.69826006  0.92041018     0.16100
O1122       O  0.08077170  0.64508159  0.89147576    -0.60930
H1123       H  0.10022375  0.63670649  0.88320211     0.43100
H1124       H  0.08993783  0.74137413  0.73661035     0.43050
C1125       C  0.13082481  0.91889425  0.81798496    -0.06010
C1126       C  0.13160988  0.94461656  0.85174605    -0.33440
C1127       C  0.12692117  0.97241885  0.83079474     0.35810
C1128       C  0.12155800  0.97490534  0.77506625    -0.06370
C1129       C  0.12055982  0.94915087  0.74144709    -0.33340
C1130       C  0.12463290  0.92133382  0.76259928     0.35720
H1131       H  0.13630639  0.94328812  0.89454167     0.16090
O1132       O  0.12743113  0.99688389  0.86527758    -0.60830
H1133       H  0.11539258  0.95037582  0.69880628     0.16100
O1134       O  0.12173712  0.89667816  0.72893271    -0.60930
H1135       H  0.10092969  0.88987263  0.73232352     0.43100
H1136       H  0.14793375  0.00489176  0.86418966     0.43050
C1137       C  0.13850415  0.82778770  0.57755529    -0.06010
C1138       C  0.15562157  0.84957015  0.60627050    -0.33440
C1139       C  0.15804582  0.84967539  0.66252648     0.35810
C1140       C  0.14305398  0.82775834  0.69140074    -0.06370
C1141       C  0.12438674  0.80702565  0.66332313    -0.33340
C1142       C  0.12186354  0.80705918  0.60667461     0.35720
H1143       H  0.16855237  0.86587782  0.58480378     0.16090
O1144       O  0.17776027  0.86905354  0.68827170    -0.60830
H1145       H  0.11275623  0.78995947  0.68518250     0.16100
O1146       O  0.10477156  0.78561252  0.58024891    -0.60930
H1147       H  0.11800499  0.76888946  0.57298355     0.43100
H1148       H  0.17158259  0.88921054  0.67966610     0.43050
C1149       C  0.13205883  0.81215452  0.20675272    -0.06010
C1150       C  0.13234416  0.83841417  0.17821069    -0.33440
C1151       C  0.13013739  0.83761833  0.12196716     0.35810
C1152       C  0.12693483  0.81022352  0.09315163    -0.06370
C1153       C  0.12434618  0.78404860  0.12197161    -0.33340
C1154       C  0.12721735  0.78485280  0.17847584     0.35720
H1155       H  0.13646396  0.85961506  0.19914195     0.16090
O1156       O  0.13232589  0.86376468  0.09552329    -0.60830
H1157       H  0.12159359  0.76280895  0.10056711     0.16100
O1158       O  0.12684598  0.75883827  0.20543098    -0.60930
H1159       H  0.10605757  0.75162787  0.20459050     0.43100
H1160       H  0.11180013  0.87006400  0.09113375     0.43050
C1161       C  0.19387317  0.74500634  0.49277601    -0.06010
C1162       C  0.19942856  0.71590780  0.47530076    -0.33440
C1163       C  0.20912494  0.69534960  0.51176740     0.35810
C1164       C  0.21315785  0.70375280  0.56675743    -0.06370
C1165       C  0.20510705  0.73212937  0.58499601    -0.33340
C1166       C  0.19545087  0.75280682  0.54828699     0.35720
H1167       H  0.19701421  0.70931895  0.43290646     0.16090
O1168       O  0.21605045  0.66746144  0.49301490    -0.60830
H1169       H  0.20897867  0.73927545  0.62676871     0.16100
O1170       O  0.19033776  0.78130668  0.56597706    -0.60930
H1171       H  0.17626807  0.77964525  0.59634992     0.43100
H1172       H  0.23485669  0.66994948  0.47323547     0.43050
C1173       C  0.27618873  0.76888055  0.18197213    -0.06010
C1174       C  0.25444399  0.78601318  0.15890048    -0.33440
C1175       C  0.23728857  0.80489964  0.19156193     0.35810
C1176       C  0.24244054  0.80740526  0.24789237    -0.06370
C1177       C  0.26650648  0.79290038  0.26935456    -0.33340
C1178       C  0.28308126  0.77360941  0.23716908     0.35720
H1179       H  0.24875519  0.78260785  0.11651789     0.16090
O1180       O  0.21406284  0.81863767  0.16877224    -0.60830
H1181       H  0.27113381  0.79466454  0.31237801     0.16100
O1182       O  0.30434595  0.75753941  0.26107553    -0.60930
H1183       H  0.32062877  0.77194905  0.27005075     0.43100
H1184       H  0.19784442  0.80347629  0.16681469     0.43050
C1185       C  0.25024708  0.88644172  0.41555540    -0.06010
C1186       C  0.27342988  0.87718753  0.38248036    -0.33440
C1187       C  0.30205918  0.88740992  0.39382456     0.35810
C1188       C  0.30719465  0.90816659  0.43666853    -0.06370
C1189       C  0.28388400  0.91871087  0.46767951    -0.33340
C1190       C  0.25547245  0.90757988  0.45796888     0.35720
H1191       H  0.26952618  0.86100851  0.34964478     0.16090
O1192       O  0.32494881  0.87653142  0.36390278    -0.60830
H1193       H  0.28796579  0.93427722  0.50143014     0.16100
O1194       O  0.23291343  0.91761428  0.48978908    -0.60930
H1195       H  0.23360800  0.90590816  0.52292101     0.43100
H1196       H  0.33043437  0.85813782  0.38161437     0.43050
C1197       C  0.06930892  0.85725792  0.41337837    -0.06010
C1198       C  0.05365392  0.87043390  0.37236180    -0.33440
C1199       C  0.02601024  0.88201006  0.38356191     0.35810
C1200       C  0.01378632  0.87939771  0.43558007    -0.06370
C1201       C  0.02874635  0.86462322  0.47520745    -0.33340
C1202       C  0.05665832  0.85431208  0.46494896     0.35720
H1203       H  0.06333017  0.87284178  0.33269407     0.16090
O1204       O  0.51034008  0.89428918  0.34262295    -0.60830
H1205       H  0.01939629  0.86238620  0.51520568     0.16100
O1206       O  0.07156138  0.84161179  0.50593012    -0.60930
H1207       H  0.08029604  0.85842764  0.52796400     0.43100
H1208       H  0.01899570  0.91591107  0.34324960     0.43050
C1209       C  0.10671997  0.72312210  0.35477659    -0.06010
C1210       C  0.12418260  0.69856028  0.36154753    -0.33440
C1211       C  0.11775609  0.67176107  0.33386765     0.35810
C1212       C  0.09412590  0.66945360  0.29691613    -0.06370
C1213       C  0.07634018  0.69399320  0.29042819    -0.33340
C1214       C  0.08239188  0.72073113  0.31955759     0.35720
H1215       H  0.14341408  0.70041572  0.38752162     0.16090
O1216       O  0.13544556  0.64821944  0.34165256    -0.60830
H1217       H  0.05750434  0.69226165  0.26353346     0.16100
O1218       O  0.06489873  0.74448900  0.31242906    -0.60930
H1219       H  0.07502281  0.75647121  0.28487797     0.43100
H1220       H  0.12867629  0.63968579  0.37603502     0.43050
C1221       C  0.14972679  0.93550375  0.32228465    -0.06010
C1222       C  0.15703811  0.94975315  0.27426703    -0.33440
C1223       C  0.14370262  0.97614647  0.26103980     0.35810
C1224       C  0.12229820  0.98839871  0.29545618    -0.06370
C1225       C  0.11593068  0.97509573  0.34445839    -0.33340
C1226       C  0.12964659  0.94909646  0.35839341     0.35720
H1227       H  0.17232344  0.93985617  0.24589792     0.16090
O1228       O  0.14972341  0.98825833  0.21206592    -0.60830
H1229       H  0.09926748  0.98418604  0.37098165     0.16100
O1230       O  0.12191851  0.93636982  0.40606913    -0.60930
H1231       H  0.10400609  0.92403685  0.39753091     0.43100
H1232       H  0.16570359  0.00323879  0.21956131     0.43050
O1233       O  0.65885293  0.39521154  0.37976445    -0.80680
O1234       O  0.64427405  0.25987979  0.35724030    -0.80700
O1235       O  0.63808385  0.33674024  0.29229689    -0.80710
O1236       O  0.60588723  0.32698082  0.37626288    -0.80650
O1237       O  0.66188020  0.29543793  0.27673477    -0.80780
O1238       O  0.61879994  0.36201537  0.43665183    -0.80700
O1239       O  0.60452229  0.26937019  0.40740393    -0.80680
O1240       O  0.66950747  0.38927930  0.29207797    -0.80720
C1241       C  0.66041130  0.40548420  0.33142146     1.09010
C1242       C  0.61844102  0.25244777  0.37472508     1.08890
C1243       C  0.64287430  0.31393785  0.26287276     1.09030
C1244       C  0.59971423  0.34932240  0.40568479     1.08910
O1245       O  0.66511643  0.33713878  0.49875615    -0.80680
O1246       O  0.71832380  0.30811861  0.33214913    -0.80760
O1247       O  0.71096979  0.37077315  0.35828907    -0.80690
O1248       O  0.65760781  0.27411767  0.45519839    -0.80670
O1249       O  0.69988715  0.27318434  0.41382726    -0.80730
O1250       O  0.70470557  0.36839406  0.44528836    -0.80690
O1251       O  0.62272176  0.31426838  0.48625661    -0.80650
O1252       O  0.69989330  0.33635179  0.27276650    -0.80720
Co1253     Co  0.66264810  0.36274469  0.43734241     1.51530
Co1254     Co  0.68108756  0.28706238  0.34814958     1.51690
Co1255     Co  0.67266210  0.35386302  0.32980264     1.51570
Co1256     Co  0.63351211  0.30057882  0.40985829     1.51470
O1257       O  0.66780477  0.32527340  0.38811833    -1.42610
C1258       C  0.64195344  0.32615345  0.51826013     1.08940
C1259       C  0.71990694  0.31902357  0.28609266     1.09030
C1260       C  0.72065800  0.37424776  0.40582291     1.08960
C1261       C  0.68379480  0.26596478  0.45282620     1.08940
O1262       O  0.64165693  0.32959636  0.00846489    -0.80680
O1263       O  0.70152954  0.29494497  0.84607981    -0.80700
O1264       O  0.66839170  0.28613068  0.96075365    -0.80710
O1265       O  0.69991507  0.37704462  0.86318352    -0.80650
O1266       O  0.67045885  0.25286443  0.89641147    -0.80780
O1267       O  0.68761738  0.35675724  0.94105038    -0.80700
O1268       O  0.70213781  0.33283462  0.79938745    -0.80680
O1269       O  0.61505523  0.28762245  0.00737179    -0.80720
C1270       C  0.62734144  0.30910533  0.03360475     1.09010
C1271       C  0.71262529  0.30835141  0.80746273     1.08890
C1272       C  0.67652433  0.26118223  0.94445499     1.09030
C1273       C  0.70618647  0.37169725  0.91203440     1.08910
O1274       O  0.63861977  0.38729342  0.89144740    -0.80680
O1275       O  0.62212927  0.26114918  0.82445451    -0.80760
O1276       O  0.58907137  0.30454699  0.91623648    -0.80690
O1277       O  0.65510048  0.34674294  0.78164548    -0.80670
O1278       O  0.65414381  0.29778543  0.76400249    -0.80730
O1279       O  0.59828680  0.35127150  0.93533729    -0.80690
O1280       O  0.64889340  0.36962485  0.81188490    -0.80650
O1281       O  0.61593446  0.25520231  0.91128797    -0.80720
Co1282     Co  0.64226316  0.35092555  0.93552728     1.51530
Co1283     Co  0.66124693  0.27906845  0.83482441     1.51690
Co1284     Co  0.62857408  0.29648613  0.93729568     1.51570
Co1285     Co  0.67314498  0.34439469  0.85670217     1.51470
O1286       O  0.64300566  0.31507397  0.87325667    -1.42610
C1287       C  0.63905546  0.39054541  0.84110141     1.08940
C1288       C  0.60966694  0.24790381  0.86240991     1.09030
C1289       C  0.58021890  0.33008045  0.92461343     1.08960
C1290       C  0.65048544  0.32404807  0.74905189     1.08940
O1291       O  0.95033528  0.38059067  0.95082509    -0.80680
O1292       O  0.83208925  0.40751489  0.02845245    -0.80700
O1293       O  0.90142018  0.35221391  0.00557425    -0.80710
O1294       O  0.89357942  0.40119168  0.88356647    -0.80650
O1295       O  0.87059497  0.36692374  0.07010973    -0.80780
O1296       O  0.93562295  0.42485887  0.89456091    -0.80700
O1297       O  0.84531267  0.39490438  0.94593978    -0.80680
O1298       O  0.96062296  0.35866479  0.02606905    -0.80720
C1299       C  0.96586152  0.36255777  0.97661462     1.09010
C1300       C  0.82571978  0.39732799  0.98135390     1.08890
C1301       C  0.88174137  0.34621899  0.04003562     1.09030
C1302       C  0.91762917  0.41030846  0.86420437     1.08910
O1303       O  0.92859112  0.46425649  0.98991320    -0.80680
O1304       O  0.90561671  0.41926872  0.11351439    -0.80760
O1305       O  0.96024225  0.41798752  0.05097026    -0.80690
O1306       O  0.85056859  0.45722887  0.98229453    -0.80670
O1307       O  0.87062784  0.45564660  0.06353772    -0.80730
O1308       O  0.97873197  0.43293290  0.97380710    -0.80690
O1309       O  0.89941756  0.46351535  0.91969585    -0.80650
O1310       O  0.92385739  0.37647943  0.10318591    -0.80720
Co1311     Co  0.93797497  0.42236642  0.97575551     1.51530
Co1312     Co  0.87136271  0.41241393  0.06578377     1.51690
Co1313     Co  0.92906941  0.38506057  0.02433657     1.51570
Co1314     Co  0.87348102  0.42770202  0.93646180     1.51470
O1315       O  0.89728487  0.41206547  0.99932433    -1.42610
C1316       C  0.91937421  0.47660689  0.94845446     1.08940
C1317       C  0.91553790  0.39689512  0.13470557     1.09030
C1318       C  0.47985449  0.43110454  0.02580014     1.08960
C1319       C  0.85858376  0.46994635  0.02701149     1.08940
O1320       O  0.98222484  0.41971446  0.43808038    -0.80680
O1321       O  0.84973416  0.39363730  0.48031764    -0.80700
O1322       O  0.92846579  0.34058039  0.53359301    -0.80710
O1323       O  0.88805364  0.41288333  0.38994697    -0.80650
O1324       O  0.88280175  0.35739166  0.54827501    -0.80780
O1325       O  0.93345338  0.40137599  0.39337220    -0.80700
O1326       O  0.84904180  0.43902600  0.45237711    -0.80680
O1327       O  0.96679989  0.37791577  0.47752487    -0.80720
C1328       C  0.98627761  0.39311000  0.45064147     1.09010
C1329       C  0.83683141  0.41378466  0.45667034     1.08890
C1330       C  0.90151858  0.33584998  0.54582684     1.09030
C1331       C  0.90974642  0.40183100  0.36729089     1.08910
O1332       O  0.93899773  0.46371485  0.42729321    -0.80680
O1333       O  0.89165424  0.41060413  0.61660206    -0.80760
O1334       O  0.95691244  0.40000837  0.56634049    -0.80690
O1335       O  0.89350350  0.47113762  0.50844792    -0.80670
O1336       O  0.85950253  0.44609318  0.55442536    -0.80730
O1337       O  0.95898654  0.44379385  0.52869965    -0.80690
O1338       O  0.89293933  0.47203897  0.39898620    -0.80650
O1339       O  0.93234126  0.38687441  0.59782023    -0.80720
Co1340     Co  0.94392228  0.42318681  0.46376976     1.51530
Co1341     Co  0.87259126  0.40285940  0.54670894     1.51690
Co1342     Co  0.92568872  0.38017699  0.51497562     1.51570
Co1343     Co  0.89263564  0.44198945  0.44954673     1.51470
O1344       O  0.90696448  0.41675641  0.50200420    -1.42610
C1345       C  0.92018084  0.47921557  0.40149126     1.08940
C1346       C  0.91502835  0.39951855  0.63235089     1.09030
C1347       C  0.96667755  0.42720564  0.56579307     1.08960
C1348       C  0.87306297  0.47055090  0.54299893     1.08940
O1349       O  0.74001283  0.19175877  0.14225301    -0.80680
O1350       O  0.84590526  0.11286603  0.05696672    -0.80700
O1351       O  0.81393752  0.20477840  0.02083212    -0.80710
O1352       O  0.78337633  0.11788977  0.19140682    -0.80650
O1353       O  0.82046788  0.15768974  0.00896050    -0.80780
O1354       O  0.76393538  0.13753332  0.12132558    -0.80700
O1355       O  0.83242230  0.09693239  0.13763773    -0.80680
O1356       O  0.76594910  0.18687074  0.06866877    -0.80720
C1357       C  0.74153334  0.19318626  0.09106731     1.09010
C1358       C  0.83977294  0.09229869  0.08879277     1.08890
C1359       C  0.81269358  0.18165779  0.99017758     1.09030
C1360       C  0.76187789  0.11940775  0.15832486     1.08910
O1361       O  0.77561021  0.16974696  0.22634025    -0.80680
O1362       O  0.86456928  0.20062459  0.05697705    -0.80760
O1363       O  0.78930300  0.24111599  0.10045478    -0.80690
O1364       O  0.87084480  0.13959216  0.19092065    -0.80670
O1365       O  0.88722763  0.15240792  0.11042792    -0.80730
O1366       O  0.79144527  0.21863399  0.17663648    -0.80690
O1367       O  0.82274433  0.16565804  0.23799496    -0.80650
O1368       O  0.84264311  0.21871980  0.12769105    -0.80720
Co1369     Co  0.77980461  0.17692106  0.14565299     1.51530
Co1370     Co  0.85196994  0.15650714  0.06307581     1.51690
Co1371     Co  0.80517088  0.20158218  0.10123158     1.51570
Co1372     Co  0.82687242  0.13263414  0.18506146     1.51470
O1373       O  0.82072691  0.16197960  0.12375965    -1.42210
C1374       C  0.79776903  0.16999927  0.25784245     1.08940
C1375       C  0.86036320  0.22248312  0.08995241     1.09030
C1376       C  0.78644522  0.24230354  0.15137554     1.08960
C1377       C  0.89199045  0.14487600  0.15860937     1.08940
O1378       O  0.73458639  0.18688328  0.64904642    -0.80680
O1379       O  0.84523847  0.10903689  0.56788130    -0.80700
O1380       O  0.80577866  0.19861943  0.52232980    -0.80710
O1381       O  0.77448971  0.11467648  0.69924483    -0.80650
O1382       O  0.81567732  0.15169519  0.51235353    -0.80780
O1383       O  0.75704074  0.13240604  0.62668449    -0.80700
O1384       O  0.81565435  0.09202856  0.63156725    -0.80680
O1385       O  0.75887510  0.18131032  0.57379318    -0.80720
C1386       C  0.73523906  0.18856006  0.59785715     1.09010
C1387       C  0.83280340  0.08785025  0.59239043     1.08890
C1388       C  0.80732160  0.17525483  0.49194768     1.09030
C1389       C  0.75325073  0.11647132  0.66642417     1.08910
O1390       O  0.77367586  0.16573971  0.73094799    -0.80680
O1391       O  0.85710545  0.19690736  0.55735547    -0.80760
O1392       O  0.78077271  0.23646907  0.60759288    -0.80690
O1393       O  0.86189548  0.12543200  0.68288796    -0.80670
O1394       O  0.87921875  0.15474104  0.61980124    -0.80730
O1395       O  0.78788867  0.21180010  0.67994055    -0.80690
O1396       O  0.82014839  0.15621895  0.74244637    -0.80650
O1397       O  0.83585360  0.21554422  0.62788747    -0.80720
Co1398     Co  0.77429225  0.17147646  0.64966109     1.51530
Co1399     Co  0.84634175  0.15329872  0.56834350     1.51690
Co1400     Co  0.79824161  0.19686146  0.60369396     1.51570
Co1401     Co  0.81789380  0.12510928  0.68472436     1.51470
O1402       O  0.81423027  0.15731278  0.62697057    -1.42610
C1403       C  0.79634753  0.16565327  0.76123191     1.08940
C1404       C  0.85420365  0.21850667  0.59094118     1.09030
C1405       C  0.77858304  0.23504932  0.65883874     1.08960
C1406       C  0.88318488  0.13783599  0.65838520     1.08940
O1407       O  0.57565044  0.50449974  0.26689488    -0.80680
O1408       O  0.57476418  0.13804553  0.22478456    -0.80700
O1409       O  0.63143367  0.05193686  0.16305260    -0.80710
O1410       O  0.57482971  0.07200560  0.35649131    -0.80650
O1411       O  0.61902178  0.09605912  0.19694637    -0.80780
O1412       O  0.54498411  0.03284773  0.34392298    -0.80700
O1413       O  0.58839036  0.11854320  0.29793866    -0.80680
O1414       O  0.61311183  0.03643966  0.26356719    -0.80720
C1415       C  0.60258961  0.51138769  0.27594791     1.09010
C1416       C  0.58625499  0.14115386  0.27103445     1.08890
C1417       C  0.63908269  0.07834594  0.17776790     1.09030
C1418       C  0.56391226  0.04784326  0.37237801     1.08910
O1419       O  0.50402808  0.05225245  0.26050779    -0.80680
O1420       O  0.57936342  0.11471743  0.12140869    -0.80760
O1421       O  0.58017606  0.51378586  0.16749050    -0.80690
O1422       O  0.52446578  0.12121769  0.26447437    -0.80670
O1423       O  0.52886213  0.10179257  0.18115720    -0.80730
O1424       O  0.53501347  0.52483130  0.18571122    -0.80690
O1425       O  0.51353468  0.07727399  0.33473003    -0.80650
O1426       O  0.57762094  0.06587500  0.12738565    -0.80720
Co1427     Co  0.54050448  0.03049073  0.26245951     1.51530
Co1428     Co  0.57212038  0.09712452  0.18955765     1.51690
Co1429     Co  0.59495954  0.05394637  0.20037149     1.51570
Co1430     Co  0.55164925  0.09638035  0.31012787     1.51470
O1431       O  0.56225022  0.06848092  0.24804535    -1.42610
C1432       C  0.49552428  0.06188657  0.30567369     1.08940
C1433       C  0.57747251  0.08908668  0.09896820     1.09030
C1434       C  0.55275482  0.51026211  0.15766228     1.08960
C1435       C  0.51376193  0.11569302  0.21681459     1.08940
O1436       O  0.60250305  0.52407564  0.78268833    -0.80680
O1437       O  0.57621423  0.13159499  0.73955008    -0.80700
O1438       O  0.62235648  0.06541551  0.72767188    -0.80710
O1439       O  0.57059476  0.07312397  0.84448808    -0.80650
O1440       O  0.61142258  0.09972984  0.67082608    -0.80780
O1441       O  0.56170706  0.02581564  0.86144321    -0.80700
O1442       O  0.54282826  0.12131949  0.80136472    -0.80680
O1443       O  0.61458107  0.50642553  0.70141445    -0.80720
C1444       C  0.61318901  0.50312384  0.75221349     1.09010
C1445       C  0.56193822  0.13842155  0.78166111     1.08890
C1446       C  0.63025219  0.08637795  0.69840049     1.09030
C1447       C  0.56992882  0.05190423  0.87788189     1.08910
O1448       O  0.51499048  0.03882975  0.79989265    -0.80680
O1449       O  0.55921649  0.07674654  0.61471411    -0.80760
O1450       O  0.55758453  0.51201784  0.67502268    -0.80690
O1451       O  0.50374760  0.08397747  0.74256099    -0.80670
O1452       O  0.52399589  0.11236282  0.68045986    -0.80730
O1453       O  0.54560448  0.49827446  0.75552979    -0.80690
O1454       O  0.51054971  0.07849867  0.85168473    -0.80650
O1455       O  0.59631743  0.04718545  0.62688113    -0.80720
Co1456     Co  0.55950557  0.03719739  0.78796774     1.51530
Co1457     Co  0.56718174  0.10293044  0.67939101     1.51690
Co1458     Co  0.58912877  0.03874379  0.70383301     1.51570
Co1459     Co  0.53753036  0.07821354  0.79028226     1.51470
O1460       O  0.56070851  0.06681791  0.72494027    -1.42610
C1461       C  0.00212825  0.05226000  0.83842505     1.08940
C1462       C  0.57691825  0.05758577  0.59685725     1.09030
C1463       C  0.54348901  0.49474885  0.70483485     1.08960
C1464       C  0.50149408  0.10154005  0.70434954     1.08940
C1465       C  0.57533982  0.04780158  0.54018089    -0.06010
C1466       C  0.60017498  0.05139452  0.50757194    -0.33440
C1467       C  0.59760211  0.04789950  0.45153135     0.35810
C1468       C  0.57003235  0.04026869  0.42817489    -0.06370
C1469       C  0.54631328  0.03257740  0.46143246    -0.33340
C1470       C  0.54869178  0.03686144  0.51743419     0.35720
H1471       H  0.62095158  0.05915684  0.52518759     0.16090
O1472       O  0.62140740  0.05456591  0.41976489    -0.60830
H1473       H  0.52518908  0.02603450  0.44389491     0.16100
O1474       O  0.52446348  0.03210311  0.54926366    -0.60930
H1475       H  0.52602053  0.01151939  0.56135599     0.43100
H1476       H  0.63027436  0.03525187  0.41062154     0.43050
C1477       C  0.57417640  0.05958111  0.93511680    -0.06010
C1478       C  0.55087129  0.05312156  0.96988073    -0.33440
C1479       C  0.55034360  0.06585482  0.02194578     0.35810
C1480       C  0.57394510  0.08412123  0.04074975    -0.06370
C1481       C  0.59734132  0.09076342  0.00607681    -0.33340
C1482       C  0.59735756  0.07884968  0.95301590     0.35720
H1483       H  0.53227890  0.03938269  0.95578441     0.16090
O1484       O  0.52687533  0.06006877  0.05494951    -0.60830
H1485       H  0.61602686  0.10415661  0.02075068     0.16100
O1486       O  0.62011574  0.08591834  0.91909804    -0.60930
H1487       H  0.63396147  0.06949098  0.92167822     0.43100
H1488       H  0.00865549  0.08190410  0.02747443     0.43050
C1489       C  0.97148989  0.11031565  0.68874809    -0.06010
C1490       C  0.96693179  0.13781991  0.66587192    -0.33440
C1491       C  0.93837738  0.14774758  0.65756745     0.35810
C1492       C  0.91369916  0.13006242  0.67213634    -0.06370
C1493       C  0.91836247  0.10253896  0.69467661    -0.33340
C1494       C  0.94672002  0.09251669  0.70250196     0.35720
H1495       H  0.98553526  0.15200949  0.65554778     0.16090
O1496       O  0.93492503  0.17476925  0.63522331    -0.60830
H1497       H  0.89987908  0.08812851  0.70480032     0.16100
O1498       O  0.94985935  0.06508605  0.72350299    -0.60930
H1499       H  0.95119084  0.05123673  0.69163067     0.43100
H1500       H  0.93299578  0.18896875  0.66643658     0.43050
C1501       C  0.66203015  0.09311096  0.69223430    -0.06010
C1502       C  0.67542220  0.11673361  0.72185166    -0.33440
C1503       C  0.70559182  0.12338873  0.71606025     0.35810
C1504       C  0.72287495  0.10634195  0.67986957    -0.06370
C1505       C  0.70945618  0.08232331  0.65093291    -0.33340
C1506       C  0.67940218  0.07530276  0.65777673     0.35720
H1507       H  0.66243354  0.13020491  0.74932578     0.16090
O1508       O  0.71793334  0.14679220  0.74567587    -0.60830
H1509       H  0.72220821  0.06924455  0.62245541     0.16100
O1510       O  0.66696185  0.05152425  0.62929531    -0.60930
H1511       H  0.66869334  0.03455406  0.65332498     0.43100
H1512       H  0.70789027  0.16462234  0.73375686     0.43050
C1513       C  0.79464235  0.17278862  0.81983269    -0.06010
C1514       C  0.80588450  0.19998778  0.84166175    -0.33440
C1515       C  0.80949745  0.20452732  0.89799437     0.35810
C1516       C  0.80280916  0.18126239  0.93282605    -0.06370
C1517       C  0.78997176  0.15478507  0.91071283    -0.33340
C1518       C  0.78577524  0.15054323  0.85494268     0.35720
H1519       H  0.81293612  0.21725206  0.81486053     0.16090
O1520       O  0.82197949  0.23066894  0.91788579    -0.60830
H1521       H  0.78441891  0.13663210  0.93666637     0.16100
O1522       O  0.77536944  0.12355980  0.83477707    -0.60930
H1523       H  0.75382211  0.12561843  0.83143701     0.43100
H1524       H  0.80517912  0.24345539  0.92666082     0.43050
C1525       C  0.79544002  0.17085076  0.31766482    -0.06010
C1526       C  0.78535601  0.19563951  0.34744978    -0.33440
C1527       C  0.78848935  0.19769328  0.40450420     0.35810
C1528       C  0.80151968  0.17455844  0.43226426    -0.06370
C1529       C  0.81036211  0.14947219  0.40181855    -0.33340
C1530       C  0.80784443  0.14772166  0.34564171     0.35720
H1531       H  0.77626511  0.21390442  0.32643423     0.16090
O1532       O  0.77972294  0.22268988  0.43226303    -0.60830
H1533       H  0.82037151  0.13118089  0.42131298     0.16100
O1534       O  0.81794726  0.12316146  0.31804056    -0.60930
H1535       H  0.83956607  0.12637888  0.31579569     0.43100
H1536       H  0.75798458  0.22092668  0.43339024     0.43050
C1537       C  0.92361107  0.14048047  0.17621586    -0.06010
C1538       C  0.94651755  0.14171070  0.13777234    -0.33440
C1539       C  0.97562284  0.13413188  0.15043203     0.35810
C1540       C  0.98307475  0.12542891  0.20286895    -0.06370
C1541       C  0.96060631  0.12543084  0.24212463    -0.33340
C1542       C  0.93134801  0.13259608  0.22931159     0.35720
H1543       H  0.94180964  0.14785157  0.09679353     0.16090
O1544       O  0.99690212  0.13614084  0.11141560    -0.60830
H1545       H  0.96550584  0.11891517  0.28281517     0.16100
O1546       O  0.91039756  0.13088623  0.26893802    -0.60930
H1547       H  0.91021402  0.15098655  0.28634763     0.43100
H1548       H  0.99145209  0.12064762  0.08357090     0.43050
C1549       C  0.67112683  0.08797753  0.17515476    -0.06010
C1550       C  0.69007993  0.07408931  0.13753580    -0.33440
C1551       C  0.72002025  0.08296731  0.13336083     0.35810
C1552       C  0.73219078  0.10541294  0.16833393    -0.06370
C1553       C  0.71354361  0.11878095  0.20682056    -0.33340
C1554       C  0.68340836  0.11057182  0.20997603     0.35720
H1555       H  0.68144224  0.05679587  0.10996342     0.16090
O1556       O  0.73695242  0.07021345  0.09363838    -0.60830
H1557       H  0.72209937  0.13667390  0.23318768     0.16100
O1558       O  0.66628826  0.12461932  0.24786869    -0.60930
H1559       H  0.65991185  0.14285200  0.23063783     0.43100
H1560       H  0.74667270  0.05367004  0.11109626     0.43050
C1561       C  0.98595620  0.43946724  0.60887857    -0.06010
C1562       C  0.97453318  0.45891526  0.64825837    -0.33440
C1563       C  0.49325845  0.47422974  0.68490161     0.35810
C1564       C  0.52387130  0.47206988  0.67941358    -0.06370
C1565       C  0.53531777  0.45247351  0.64015903    -0.33340
C1566       C  0.51654045  0.43605692  0.60491375     0.35720
H1567       H  0.95126474  0.46310678  0.64884166     0.16090
O1568       O  0.98167257  0.49488607  0.72068631    -0.60830
H1569       H  0.55889278  0.45114101  0.63496079     0.16100
O1570       O  0.52826977  0.41815861  0.56508691    -0.60930
H1571       H  0.53156388  0.43108645  0.53395295     0.43100
H1572       H  0.97496688  0.48320396  0.75178010     0.43050
C1573       C  0.93118232  0.00571053  0.37511005    -0.06010
C1574       C  0.94442295  0.02880116  0.40657434    -0.33440
C1575       C  0.96228078  0.05030090  0.38238160     0.35810
C1576       C  0.96776235  0.04794427  0.32628493    -0.06370
C1577       C  0.95110032  0.52712440  0.29434954    -0.33340
C1578       C  0.93305980  0.50588465  0.31855302     0.35720
H1579       H  0.94238282  0.02912252  0.45024112     0.16090
O1580       O  0.97550560  0.07243586  0.41410371    -0.60830
H1581       H  0.95429993  0.52531681  0.25095674     0.16100
O1582       O  0.91965523  0.48378714  0.28702697    -0.60930
H1583       H  0.93414546  0.46784523  0.28390712     0.43100
H1584       H  0.99012775  0.06264322  0.43657010     0.43050
C1585       C  0.86847652  0.24819389  0.58299662    -0.06010
C1586       C  0.89172767  0.25157139  0.54615330    -0.33440
C1587       C  0.90340687  0.27984611  0.53473672     0.35810
C1588       C  0.89116628  0.30546077  0.55885539    -0.06370
C1589       C  0.86836231  0.30205034  0.59622310    -0.33340
C1590       C  0.85740339  0.27397254  0.60909813     0.35720
H1591       H  0.90067709  0.23228549  0.52562384     0.16090
O1592       O  0.92573138  0.28220894  0.49783319    -0.60830
H1593       H  0.85894554  0.32134963  0.61594776     0.16100
O1594       O  0.83487718  0.27229839  0.64567737    -0.60930
H1595       H  0.84455050  0.27190631  0.68159307     0.43100
H1596       H  0.94400527  0.27949968  0.51875439     0.43050
C1597       C  0.84172736  0.05735441  0.57931854    -0.06010
C1598       C  0.87131265  0.05315287  0.56674225    -0.33440
C1599       C  0.88217899  0.02484963  0.55999993     0.35810
C1600       C  0.86312860  0.99970763  0.56348019    -0.06370
C1601       C  0.83362302  0.00374137  0.57785580    -0.33340
C1602       C  0.82292898  0.03238135  0.58632885     0.35720
H1603       H  0.88646598  0.07198588  0.56373778     0.16090
O1604       O  0.91153061  0.02209913  0.54888078    -0.60830
H1605       H  0.81860124  0.48481068  0.58052684     0.16100
O1606       O  0.79408761  0.03570090  0.60068613    -0.60930
H1607       H  0.78340800  0.03782889  0.56612535     0.43100
H1608       H  0.92097737  0.01916278  0.58437912     0.43050
C1609       C  0.92227247  0.40833222  0.80515070    -0.06010
C1610       C  0.93041210  0.38178725  0.77868312    -0.33440
C1611       C  0.93070589  0.37918675  0.72167855     0.35810
C1612       C  0.92216535  0.40313827  0.69080544    -0.06370
C1613       C  0.91506104  0.42986161  0.71780460    -0.33340
C1614       C  0.91551562  0.43269137  0.77421218     0.35720
H1615       H  0.93556746  0.36282835  0.80216402     0.16090
O1616       O  0.93740574  0.35263974  0.69680048    -0.60830
H1617       H  0.90787090  0.44838402  0.69504423     0.16100
O1618       O  0.90790051  0.45903105  0.79887463    -0.60930
H1619       H  0.88619408  0.45776502  0.80230423     0.43100
H1620       H  0.91832984  0.34164033  0.69221713     0.43050
C1621       C  0.91330129  0.39392165  0.19395662    -0.06010
C1622       C  0.88952339  0.40707668  0.22015548    -0.33440
C1623       C  0.88666579  0.40709195  0.27621883     0.35810
C1624       C  0.90838762  0.39426872  0.30824341    -0.06370
C1625       C  0.93164352  0.37977513  0.28182866    -0.33340
C1626       C  0.93398730  0.37924094  0.22494206     0.35720
H1627       H  0.87311883  0.41811901  0.19699839     0.16090
O1628       O  0.86402890  0.42244570  0.29934745    -0.60830
H1629       H  0.94872988  0.37004295  0.30534467     0.16100
O1630       O  0.95725818  0.36565264  0.20044841    -0.60930
H1631       H  0.97295171  0.38127573  0.19855578     0.43100
H1632       H  0.84586585  0.41083665  0.28946602     0.43050
C1633       C  0.50119146  0.45102181  0.05495562    -0.06010
C1634       C  0.52938246  0.44213583  0.07031047    -0.33440
C1635       C  0.54840041  0.46179159  0.10072745     0.35810
C1636       C  0.53916593  0.49055201  0.11485914    -0.06370
C1637       C  0.51166005  0.49923525  0.09643149    -0.33340
C1638       C  0.00281826  0.48131676  0.04896807     0.35720
H1639       H  0.53616985  0.41982896  0.06038681     0.16090
O1640       O  0.57488238  0.45221929  0.11863902    -0.60830
H1641       H  0.50320041  0.02068204  0.10819521     0.16100
O1642       O  0.98103142  0.49399369  0.02019885    -0.60930
H1643       H  0.99122259  0.00713013  0.99449972     0.43100
H1644       H  0.57071008  0.44377492  0.15438837     0.43050
C1645       C  0.93908333  0.99841105  0.92273875    -0.06010
C1646       C  0.96421075  0.48694664  0.89880041    -0.33440
C1647       C  0.98458269  0.50460205  0.87320341     0.35810
C1648       C  0.98011330  0.03509358  0.86914950    -0.06370
C1649       C  0.95506978  0.04740982  0.89368826    -0.33340
C1650       C  0.93427972  0.02899956  0.92015028     0.35720
H1651       H  0.96900323  0.46396031  0.90025528     0.16090
O1652       O  0.51053611  0.49171626  0.85667747    -0.60830
H1653       H  0.95138177  0.07088950  0.89139948     0.16100
O1654       O  0.90993095  0.04104247  0.94368779    -0.60930
H1655       H  0.89405812  0.03804300  0.91635697     0.43100
H1656       H  0.52212816  0.48628925  0.88867686     0.43050
C1657       C  0.86968545  0.25367193  0.07838362    -0.06010
C1658       C  0.87707224  0.26153328  0.02548307    -0.33440
C1659       C  0.88010190  0.29147104  0.01179893     0.35810
C1660       C  0.87544941  0.31440855  0.05107242    -0.06370
C1661       C  0.86865286  0.30653368  0.10400107    -0.33340
C1662       C  0.86597800  0.27673893  0.11788197     0.35720
H1663       H  0.87952786  0.24446600  0.99407240     0.16090
O1664       O  0.88743849  0.29800168  0.95970848    -0.60830
H1665       H  0.86612604  0.32358201  0.13545595     0.16100
O1666       O  0.86013997  0.27039072  0.17070238    -0.60930
H1667       H  0.84009487  0.27755890  0.17773156     0.43100
H1668       H  0.86842398  0.30008755  0.94079175     0.43050
C1669       C  0.85397013  0.00192704  0.03815991    -0.06010
C1670       C  0.82755856  0.01517024  0.02417205    -0.33440
C1671       C  0.82252134  0.04486466  0.03982420     0.35810
C1672       C  0.84407489  0.06152201  0.06951364    -0.06370
C1673       C  0.87080078  0.04867936  0.08138334    -0.33340
C1674       C  0.87584369  0.01920894  0.06612716     0.35720
H1675       H  0.81050326  0.50223342  0.00279186     0.16090
O1676       O  0.79618680  0.05703446  0.02766981    -0.60830
H1677       H  0.88781294  0.06154091  0.10310276     0.16100
O1678       O  0.90260449  0.00764704  0.07759067    -0.60930
H1679       H  0.90166209  0.00273553  0.11632989     0.43100
H1680       H  0.79950833  0.06689982  0.99293608     0.43050
C1681       C  0.69024327  0.24102516  0.98249061    -0.06010
C1682       C  0.68750915  0.24644943  0.03869196    -0.33440
C1683       C  0.70109655  0.22844251  0.07572051     0.35810
C1684       C  0.71837073  0.20497758  0.05672915    -0.06370
C1685       C  0.71939607  0.19834473  0.00073052    -0.33340
C1686       C  0.70544601  0.21598698  0.96378576     0.35720
H1687       H  0.67542871  0.26520555  0.05411925     0.16090
O1688       O  0.69970629  0.23579780  0.12991822    -0.60830
H1689       H  0.73276152  0.18050809  0.98517498     0.16100
O1690       O  0.70879999  0.20983053  0.90945251    -0.60930
H1691       H  0.69345470  0.19445192  0.90012600     0.43100
H1692       H  0.68137771  0.22593850  0.14270077     0.43050
C1693       C  0.73201971  0.29262253  0.76913940    -0.06010
C1694       C  0.73463088  0.26259017  0.77750205    -0.33440
C1695       C  0.74883950  0.24440238  0.74100883     0.35810
C1696       C  0.76280103  0.25602967  0.69500339    -0.06370
C1697       C  0.76047936  0.28638790  0.68566153    -0.33340
C1698       C  0.74477500  0.30474993  0.72237451     0.35720
H1699       H  0.72412718  0.25220553  0.81159970     0.16090
O1700       O  0.74632555  0.21455737  0.74838031    -0.60830
H1701       H  0.77053197  0.29572420  0.65019733     0.16100
O1702       O  0.74208375  0.33416410  0.71230566    -0.60930
H1703       H  0.72679197  0.33471087  0.68378804     0.43100
H1704       H  0.75311754  0.21139441  0.78579403     0.43050
C1705       C  0.73604180  0.37970772  0.93283313    -0.06010
C1706       C  0.75622474  0.39328201  0.89794465    -0.33440
C1707       C  0.78527333  0.39900754  0.91365785     0.35810
C1708       C  0.79490452  0.39124254  0.96529091    -0.06370
C1709       C  0.77472448  0.37862761  0.00119881    -0.33340
C1710       C  0.74552736  0.37245493  0.98512159     0.35720
H1711       H  0.74967828  0.39923049  0.85771398     0.16090
O1712       O  0.80405377  0.41253045  0.87816963    -0.60830
H1713       H  0.78176823  0.37290205  0.04127377     0.16100
O1714       O  0.72662394  0.35930484  0.02079559    -0.60930
H1715       H  0.72997131  0.33776448  0.01641212     0.43100
H1716       H  0.80314750  0.43401212  0.88747927     0.43050
C1717       C  0.54882983  0.33427648  0.92782056    -0.06010
C1718       C  0.53634288  0.35777857  0.90199641    -0.33440
C1719       C  0.50724469  0.36467129  0.91231518     0.35810
C1720       C  0.49105745  0.34867179  0.95097327    -0.06370
C1721       C  0.50292929  0.32366900  0.97327378    -0.33340
C1722       C  0.53169539  0.31625314  0.96159372     0.35720
H1723       H  0.54948341  0.37145086  0.87555723     0.16090
O1724       O  0.99661869  0.38978118  0.88914961    -0.60830
H1725       H  0.49065179  0.31114369  0.00271957     0.16100
O1726       O  0.54365779  0.29290718  0.98698808    -0.60930
H1727       H  0.55176009  0.30143023  0.02160547     0.43100
H1728       H  0.98706553  0.38247848  0.85496401     0.43050
C1729       C  0.56793019  0.16740957  0.80784343    -0.06010
C1730       C  0.56609985  0.19245965  0.77670706    -0.33440
C1731       C  0.57698825  0.21982244  0.79664021     0.35810
C1732       C  0.59039471  0.22214471  0.84816425    -0.06370
C1733       C  0.58952203  0.19761729  0.88144721    -0.33340
C1734       C  0.57833109  0.17018798  0.86141114     0.35720
H1735       H  0.55734451  0.19053549  0.73589274     0.16090
O1736       O  0.57531984  0.24401285  0.76483260    -0.60830
H1737       H  0.59961023  0.19907046  0.92120800     0.16100
O1738       O  0.57973819  0.14586450  0.89280590    -0.60930
H1739       H  0.59954999  0.13797157  0.88612044     0.43100
H1740       H  0.59036013  0.24117116  0.73626216     0.43050
C1741       C  0.63139799  0.41906217  0.81822587    -0.06010
C1742       C  0.63207074  0.44479650  0.85194215    -0.33440
C1743       C  0.62723052  0.47255775  0.83094933     0.35810
C1744       C  0.62181871  0.47499254  0.77521713    -0.06370
C1745       C  0.62096610  0.44923100  0.74162832    -0.33340
C1746       C  0.62519361  0.42145005  0.76282501     0.35720
H1747       H  0.63677384  0.44350735  0.89474257     0.16090
O1748       O  0.62761909  0.49703212  0.86540861    -0.60830
H1749       H  0.61577447  0.45041458  0.69899002     0.16100
O1750       O  0.62240120  0.39677214  0.72919575    -0.60930
H1751       H  0.60162370  0.38987133  0.73260924     0.43100
H1752       H  0.64806354  0.50519094  0.86420240     0.43050
C1753       C  0.63864007  0.32825887  0.57781742    -0.06010
C1754       C  0.65602197  0.34984668  0.60649200    -0.33440
C1755       C  0.65850030  0.34991343  0.66273812     0.35810
C1756       C  0.64330933  0.32815183  0.69165843    -0.06370
C1757       C  0.62437644  0.30764261  0.66364024    -0.33340
C1758       C  0.62178606  0.30772384  0.60700057     0.35720
H1759       H  0.66910328  0.36602672  0.58500296     0.16090
O1760       O  0.67841801  0.36909566  0.68842119    -0.60830
H1761       H  0.61257415  0.29070482  0.68553539     0.16100
O1762       O  0.60438923  0.28650422  0.58064268    -0.60930
H1763       H  0.61737390  0.26958115  0.57337241     0.43100
H1764       H  0.67233934  0.38932082  0.68006392     0.43050
C1765       C  0.63179808  0.31227132  0.20690130    -0.06010
C1766       C  0.63182009  0.33853665  0.17838079    -0.33440
C1767       C  0.62971855  0.33772578  0.12211765     0.35810
C1768       C  0.62689871  0.31031111  0.09328022    -0.06370
C1769       C  0.62449845  0.28411472  0.12205666    -0.33340
C1770       C  0.62725544  0.28493490  0.17857304     0.35720
H1771       H  0.63567983  0.35977139  0.19934197     0.16090
O1772       O  0.63163372  0.36388613  0.09567363    -0.60830
H1773       H  0.62200483  0.26286024  0.10061558     0.16100
O1774       O  0.62711882  0.25891159  0.20548914    -0.60930
H1775       H  0.60639214  0.25150870  0.20461430     0.43100
H1776       H  0.61102873  0.36988863  0.09102527     0.43050
C1777       C  0.69387332  0.24514770  0.49268529    -0.06010
C1778       C  0.69978604  0.21619910  0.47479907    -0.33440
C1779       C  0.70950306  0.19553494  0.51104036     0.35810
C1780       C  0.71327847  0.20369680  0.56619925    -0.06370
C1781       C  0.70490877  0.23190594  0.58479949    -0.33340
C1782       C  0.69516282  0.25266683  0.54833118     0.35720
H1783       H  0.69758135  0.20980081  0.43228366     0.16090
O1784       O  0.71666329  0.16777839  0.49193754    -0.60830
H1785       H  0.70856317  0.23887703  0.62672230     0.16100
O1786       O  0.68966003  0.28100311  0.56645253    -0.60930
H1787       H  0.67532297  0.27899880  0.59632426     0.43100
H1788       H  0.73547280  0.17049146  0.47226383     0.43050
C1789       C  0.77577160  0.26880208  0.18149261    -0.06010
C1790       C  0.75399717  0.28593663  0.15851845    -0.33440
C1791       C  0.73691095  0.30485686  0.19125178     0.35810
C1792       C  0.74216126  0.30739340  0.24755330    -0.06370
C1793       C  0.76624104  0.29287129  0.26890538    -0.33340
C1794       C  0.78275073  0.27355237  0.23665801     0.35720
H1795       H  0.74824438  0.28252344  0.11616648     0.16090
O1796       O  0.71366344  0.31861027  0.16856907    -0.60830
H1797       H  0.77094012  0.29465515  0.31190197     0.16100
O1798       O  0.80404631  0.25748257  0.26048126    -0.60930
H1799       H  0.82023144  0.27193460  0.26986017     0.43100
H1800       H  0.69743849  0.30345532  0.16666389     0.43050
C1801       C  0.75025751  0.38638768  0.41539540    -0.06010
C1802       C  0.77344089  0.37684099  0.38261141    -0.33440
C1803       C  0.80211832  0.38682333  0.39417592     0.35810
C1804       C  0.80729922  0.40761707  0.43693830    -0.06370
C1805       C  0.78401112  0.41842905  0.46767232    -0.33340
C1806       C  0.75554497  0.40754050  0.45775743     0.35720
H1807       H  0.76948473  0.36062819  0.34985001     0.16090
O1808       O  0.82499157  0.37571731  0.36450078    -0.60830
H1809       H  0.78813170  0.43404986  0.50132677     0.16100
O1810       O  0.73299302  0.41782407  0.48932449    -0.60930
H1811       H  0.73352012  0.40619440  0.52256539     0.43100
H1812       H  0.83031385  0.35733184  0.38241152     0.43050
C1813       C  0.56924902  0.35749444  0.41346237    -0.06010
C1814       C  0.55339684  0.37011947  0.37207989    -0.33440
C1815       C  0.52566944  0.38154690  0.38306330     0.35810
C1816       C  0.51356222  0.37930145  0.43523532    -0.06370
C1817       C  0.52871193  0.36502824  0.47526298    -0.33340
C1818       C  0.55670760  0.35489428  0.46519852     0.35720
H1819       H  0.56297323  0.37221740  0.33226001     0.16090
O1820       O  0.01087907  0.39527837  0.34347997    -0.60830
H1821       H  0.51944000  0.36307260  0.51538389     0.16100
O1822       O  0.57178155  0.34267268  0.50649540    -0.60930
H1823       H  0.58045124  0.35972740  0.52798661     0.43100
H1824       H  0.51822174  0.41502219  0.34188492     0.43050
C1825       C  0.60651704  0.22362318  0.35527436    -0.06010
C1826       C  0.62396601  0.19908633  0.36225404    -0.33440
C1827       C  0.61777104  0.17236991  0.33421296     0.35810
C1828       C  0.59434574  0.17010878  0.29681128    -0.06370
C1829       C  0.57656301  0.19462236  0.29011026    -0.33340
C1830       C  0.58242733  0.22130526  0.31950224     0.35720
H1831       H  0.64305491  0.20092177  0.38859141     0.16090
O1832       O  0.63548292  0.14885814  0.34212813    -0.60830
H1833       H  0.55787611  0.19290929  0.26286384     0.16100
O1834       O  0.56500190  0.24508429  0.31209449    -0.60930
H1835       H  0.57534186  0.25713279  0.28489466     0.43100
H1836       H  0.62864033  0.14029071  0.37643558     0.43050
C1837       C  0.64958435  0.43560478  0.32177307    -0.06010
C1838       C  0.65622280  0.44940776  0.27300398    -0.33440
C1839       C  0.64276538  0.47571253  0.25970630     0.35810
C1840       C  0.62192069  0.48834425  0.29484697    -0.06370
C1841       C  0.61621176  0.47549895  0.34451185    -0.33340
C1842       C  0.63005782  0.44957411  0.35848940     0.35720
H1843       H  0.67106837  0.43923259  0.24414589     0.16090
O1844       O  0.64814748  0.48741419  0.21015002    -0.60830
H1845       H  0.60002751  0.48493892  0.37165726     0.16100
O1846       O  0.62305861  0.43734571  0.40696797    -0.60930
H1847       H  0.60495526  0.42506189  0.39978146     0.43100
H1848       H  0.66440844  0.50222729  0.21646877     0.43050
O1849       O  0.65885126  0.89520494  0.37976115    -0.80680
O1850       O  0.64427503  0.75987358  0.35723582    -0.80700
O1851       O  0.63808546  0.83673499  0.29229374    -0.80710
O1852       O  0.60588733  0.82697449  0.37625656    -0.80650
O1853       O  0.66188169  0.79543260  0.27673127    -0.80780
O1854       O  0.61879907  0.86200846  0.43664687    -0.80700
O1855       O  0.60452278  0.76936409  0.40739804    -0.80680
O1856       O  0.66950866  0.88927405  0.29207562    -0.80720
C1857       C  0.66040995  0.90547783  0.33141846     1.09010
C1858       C  0.61844182  0.75244157  0.37471996     1.08890
C1859       C  0.64287594  0.81393272  0.26286944     1.09030
C1860       C  0.59971342  0.84931515  0.40568012     1.08910
O1861       O  0.66511473  0.83713252  0.49875326    -0.80680
O1862       O  0.71832507  0.80811280  0.33214633    -0.80760
O1863       O  0.71097056  0.87076787  0.35828845    -0.80690
O1864       O  0.65760780  0.77411211  0.45519443    -0.80670
O1865       O  0.69988754  0.77317884  0.41382451    -0.80730
O1866       O  0.70470455  0.86838882  0.44528726    -0.80690
O1867       O  0.62272019  0.81426197  0.48625103    -0.80650
O1868       O  0.69989502  0.83634669  0.27276428    -0.80720
Co1869     Co  0.66264708  0.86273855  0.43733935     1.51530
Co1870     Co  0.68108849  0.78705670  0.34814629     1.51690
Co1871     Co  0.67266335  0.85385763  0.32980018     1.51570
Co1872     Co  0.63351226  0.80057282  0.40985325     1.51470
O1873       O  0.66780518  0.82526764  0.38811512    -1.42610
C1874       C  0.64195138  0.82614693  0.51825572     1.08940
C1875       C  0.71990869  0.81901847  0.28609042     1.09030
C1876       C  0.72065790  0.87424251  0.40582295     1.08960
C1877       C  0.68379493  0.76595956  0.45282328     1.08940
O1878       O  0.64165326  0.82959372  0.00846093    -0.80680
O1879       O  0.70152686  0.79494332  0.84607583    -0.80700
O1880       O  0.66839106  0.78612972  0.96075129    -0.80710
O1881       O  0.69990819  0.87704292  0.86317577    -0.80650
O1882       O  0.67045937  0.75286233  0.89641147    -0.80780
O1883       O  0.68761130  0.85675666  0.94104405    -0.80700
O1884       O  0.70213261  0.83283217  0.79938156    -0.80680
O1885       O  0.61505494  0.78761773  0.00737083    -0.80720
C1886       C  0.62734008  0.80910167  0.03360232     1.09010
C1887       C  0.71262165  0.80834977  0.80745793     1.08890
C1888       C  0.67652505  0.76118146  0.94445434     1.09030
C1889       C  0.70617990  0.87169665  0.91202701     1.08910
O1890       O  0.63861115  0.88728890  0.89143942    -0.80680
O1891       O  0.62212809  0.76114308  0.82445546    -0.80760
O1892       O  0.58906794  0.80453962  0.91623776    -0.80690
O1893       O  0.65509431  0.84673791  0.78164019    -0.80670
O1894       O  0.65413990  0.79778018  0.76399973    -0.80730
O1895       O  0.59828055  0.85126509  0.93533458    -0.80690
O1896       O  0.64888658  0.86962034  0.81187770    -0.80650
O1897       O  0.61593539  0.75519674  0.91128963    -0.80720
Co1898     Co  0.64225718  0.85092220  0.93552237     1.51530
Co1899     Co  0.66124484  0.77906473  0.83482284     1.51690
Co1900     Co  0.62857208  0.79648185  0.93729438     1.51570
Co1901     Co  0.67313946  0.84439174  0.85669643     1.51470
O1902       O  0.64300155  0.81506981  0.87325356    -1.42610
C1903       C  0.63904746  0.89054071  0.84109324     1.08940
C1904       C  0.60966763  0.74789724  0.86241226     1.09030
C1905       C  0.58021374  0.83007249  0.92461465     1.08960
C1906       C  0.65048035  0.82404241  0.74904771     1.08940
O1907       O  0.95033115  0.88059851  0.95081989    -0.80680
O1908       O  0.83208243  0.90751797  0.02844533    -0.80700
O1909       O  0.90141485  0.85221882  0.00556578    -0.80710
O1910       O  0.89357319  0.90120048  0.88355925    -0.80650
O1911       O  0.87058893  0.86692720  0.07010108    -0.80780
O1912       O  0.93561709  0.92486673  0.89455810    -0.80700
O1913       O  0.84530558  0.89491249  0.94593010    -0.80680
O1914       O  0.96061736  0.85867093  0.02606280    -0.80720
C1915       C  0.96585695  0.86256505  0.97660918     1.09010
C1916       C  0.82571293  0.89733348  0.98134519     1.08890
C1917       C  0.88173588  0.84622325  0.04002652     1.09030
C1918       C  0.91762398  0.91031645  0.86419989     1.08910
O1919       O  0.92858304  0.96426292  0.98991341    -0.80680
O1920       O  0.90560931  0.91927180  0.11350953    -0.80760
O1921       O  0.96023479  0.91799326  0.05096755    -0.80690
O1922       O  0.85056323  0.95723655  0.98229246    -0.80670
O1923       O  0.87062008  0.95564831  0.06353639    -0.80730
O1924       O  0.97872528  0.93294114  0.97380684    -0.80690
O1925       O  0.89941186  0.96352314  0.91969339    -0.80650
O1926       O  0.92385133  0.87648324  0.10317906    -0.80720
Co1927     Co  0.93796849  0.92237329  0.97575272     1.51530
Co1928     Co  0.87135574  0.91241670  0.06577763     1.51690
Co1929     Co  0.92906319  0.88506591  0.02433034     1.51570
Co1930     Co  0.87347489  0.92770989  0.93645680     1.51470
O1931       O  0.89727822  0.91207053  0.99931841    -1.42610
C1932       C  0.91936759  0.97661423  0.94845457     1.08940
C1933       C  0.91553240  0.89689875  0.13469957     1.09030
C1934       C  0.47984847  0.93108280  0.02582656     1.08960
C1935       C  0.85857780  0.96995100  0.02701270     1.08940
O1936       O  0.98222939  0.91972499  0.43808900    -0.80680
O1937       O  0.84973589  0.89363597  0.48031619    -0.80700
O1938       O  0.92846993  0.84058232  0.53358660    -0.80710
O1939       O  0.88805626  0.91287762  0.38994842    -0.80650
O1940       O  0.88280629  0.85739336  0.54827378    -0.80780
O1941       O  0.93346112  0.90138826  0.39336577    -0.80700
O1942       O  0.84904188  0.93902328  0.45236917    -0.80680
O1943       O  0.96680337  0.87792273  0.47752126    -0.80720
C1944       C  0.98628195  0.89311930  0.45064369     1.09010
C1945       C  0.83683204  0.91378200  0.45666712     1.08890
C1946       C  0.90152310  0.83585166  0.54582365     1.09030
C1947       C  0.90975240  0.90183492  0.36728772     1.08910
O1948       O  0.93899825  0.96372395  0.42730325    -0.80680
O1949       O  0.89165669  0.91060754  0.61659869    -0.80760
O1950       O  0.95691489  0.90001054  0.56633862    -0.80690
O1951       O  0.89350055  0.97113900  0.50843783    -0.80670
O1952       O  0.85950238  0.94609337  0.55442016    -0.80730
O1953       O  0.95898431  0.94379878  0.52870787    -0.80690
O1954       O  0.89294100  0.97203583  0.39897556    -0.80650
O1955       O  0.93234237  0.88687534  0.59781755    -0.80720
Co1956     Co  0.94392499  0.92319429  0.46377194     1.51530
Co1957     Co  0.87259341  0.90286050  0.54670642     1.51690
Co1958     Co  0.92569168  0.88017949  0.51497163     1.51570
Co1959     Co  0.89263572  0.94198789  0.44954091     1.51470
O1960       O  0.90696623  0.91675852  0.50200176    -1.42610
C1961       C  0.92018069  0.97921985  0.40149292     1.08940
C1962       C  0.91503018  0.89952086  0.63234781     1.09030
C1963       C  0.96667665  0.92720916  0.56579804     1.08960
C1964       C  0.87306114  0.97055152  0.54299118     1.08940
O1965       O  0.74002158  0.69176644  0.14225677    -0.80680
O1966       O  0.84594558  0.61286835  0.05697501    -0.80700
O1967       O  0.81393880  0.70476989  0.02082798    -0.80710
O1968       O  0.78336859  0.61789131  0.19140447    -0.80650
O1969       O  0.82048609  0.65768265  0.00895435    -0.80780
O1970       O  0.76393527  0.63753850  0.12132345    -0.80700
O1971       O  0.83239172  0.59692077  0.13759791    -0.80680
O1972       O  0.76595264  0.68686918  0.06866863    -0.80720
C1973       C  0.74153885  0.69318945  0.09106971     1.09010
C1974       C  0.83977840  0.59229551  0.08877031     1.08890
C1975       C  0.81270179  0.68164845  0.99017430     1.09030
C1976       C  0.76187163  0.61941406  0.15832294     1.08910
O1977       O  0.77562507  0.66975107  0.22634136    -0.80680
O1978       O  0.86457100  0.70063141  0.05696595    -0.80760
O1979       O  0.78930748  0.74111404  0.10045153    -0.80690
O1980       O  0.87084476  0.63954992  0.19089138    -0.80670
O1981       O  0.88723799  0.65243445  0.11044457    -0.80730
O1982       O  0.79145771  0.71863539  0.17663482    -0.80690
O1983       O  0.82275840  0.66563906  0.23798708    -0.80650
O1984       O  0.84264816  0.71871910  0.12768634    -0.80720
Co1985     Co  0.77981247  0.67692400  0.14565198     1.51530
Co1986     Co  0.85198525  0.65651323  0.06307846     1.51690
Co1987     Co  0.80517507  0.70157933  0.10122857     1.51570
Co1988     Co  0.82686750  0.63261828  0.18504132     1.51470
O1989       O  0.82073246  0.66197625  0.12375302    -1.42210
C1990       C  0.79778600  0.66999306  0.25783860     1.08940
C1991       C  0.86036449  0.72248752  0.08994405     1.09030
C1992       C  0.78645379  0.74230373  0.15137327     1.08960
C1993       C  0.89199444  0.64486786  0.15860681     1.08940
O1994       O  0.73458919  0.68688191  0.64904656    -0.80680
O1995       O  0.84524285  0.60903785  0.56788105    -0.80700
O1996       O  0.80578256  0.69862091  0.52232897    -0.80710
O1997       O  0.77449229  0.61467641  0.69924230    -0.80650
O1998       O  0.81568117  0.65169657  0.51235566    -0.80780
O1999       O  0.75704484  0.63240572  0.62668108    -0.80700
O2000       O  0.81565510  0.59202968  0.63156094    -0.80680
O2001       O  0.75887809  0.68131061  0.57379257    -0.80720
C2002       C  0.73524176  0.68855904  0.59785725     1.09010
C2003       C  0.83280598  0.58785114  0.59238724     1.08890
C2004       C  0.80732759  0.67525630  0.49194747     1.09030
C2005       C  0.75325394  0.61647094  0.66642039     1.08910
O2006       O  0.77367948  0.66573921  0.73094636    -0.80680
O2007       O  0.85710951  0.69690873  0.55735681    -0.80760
O2008       O  0.78077439  0.73646955  0.60759221    -0.80690
O2009       O  0.86189829  0.62542986  0.68288410    -0.80670
O2010       O  0.87922224  0.65474207  0.61980309    -0.80730
O2011       O  0.78789075  0.71180048  0.67993975    -0.80690
O2012       O  0.82015181  0.65621662  0.74244448    -0.80650
O2013       O  0.83585601  0.71554659  0.62788646    -0.80720
Co2014     Co  0.77429550  0.67147650  0.64965978     1.51530
Co2015     Co  0.84634572  0.65329995  0.56834450     1.51690
Co2016     Co  0.79824446  0.69686254  0.60369298     1.51570
Co2017     Co  0.81789637  0.62510859  0.68472094     1.51470
O2018       O  0.81423401  0.65731409  0.62697054    -1.42610
C2019       C  0.79635101  0.66565079  0.76123038     1.08940
C2020       C  0.85420682  0.71850856  0.59094113     1.09030
C2021       C  0.77858452  0.73504954  0.65883806     1.08960
C2022       C  0.88318810  0.63783491  0.65838401     1.08940
O2023       O  0.57564782  0.00450291  0.26688811    -0.80680
O2024       O  0.57475335  0.63804342  0.22478169    -0.80700
O2025       O  0.63143022  0.55194038  0.16305585    -0.80710
O2026       O  0.57483205  0.57200143  0.35647631    -0.80650
O2027       O  0.61901319  0.59606130  0.19694487    -0.80780
O2028       O  0.54498453  0.53284490  0.34392736    -0.80700
O2029       O  0.58838797  0.61853712  0.29792424    -0.80680
O2030       O  0.61310661  0.53644642  0.26357049    -0.80720
C2031       C  0.60258858  0.01138343  0.27594278     1.09010
C2032       C  0.58624911  0.64114973  0.27102706     1.08890
C2033       C  0.63907644  0.57835028  0.17776908     1.09030
C2034       C  0.56391623  0.54784095  0.37237297     1.08910
O2035       O  0.50401855  0.55223196  0.26051703    -0.80680
O2036       O  0.57935765  0.61472150  0.12141217    -0.80760
O2037       O  0.58017087  0.01378556  0.16748166    -0.80690
O2038       O  0.52446019  0.62121178  0.26447215    -0.80670
O2039       O  0.52885401  0.60179125  0.18115053    -0.80730
O2040       O  0.53502242  0.02486676  0.18570662    -0.80690
O2041       O  0.51353425  0.57726905  0.33472391    -0.80650
O2042       O  0.57761894  0.56587746  0.12737301    -0.80720
Co2043     Co  0.54050117  0.53047803  0.26246428     1.51530
Co2044     Co  0.57211169  0.59712313  0.18955224     1.51690
Co2045     Co  0.59495442  0.55394921  0.20036842     1.51570
Co2046     Co  0.55164709  0.59637447  0.31011812     1.51470
O2047       O  0.56223929  0.56847481  0.24803277    -1.42610
C2048       C  0.49551976  0.56187972  0.30567877     1.08940
C2049       C  0.57747380  0.58909306  0.09896250     1.09030
C2050       C  0.55274727  0.01027788  0.15765912     1.08960
C2051       C  0.51375540  0.61569035  0.21681217     1.08940
O2052       O  0.60249984  0.02407262  0.78268130    -0.80680
O2053       O  0.57621661  0.63159143  0.73954216    -0.80700
O2054       O  0.62235875  0.56541741  0.72767232    -0.80710
O2055       O  0.57059244  0.57312756  0.84448506    -0.80650
O2056       O  0.61142517  0.59972683  0.67081728    -0.80780
O2057       O  0.56170566  0.52581963  0.86144646    -0.80700
O2058       O  0.54282554  0.62131845  0.80134915    -0.80680
O2059       O  0.61457513  0.00642396  0.70140595    -0.80720
C2060       C  0.61318363  0.00312064  0.75220462     1.09010
C2061       C  0.56193915  0.63841831  0.78165131     1.08890
C2062       C  0.63025473  0.58637770  0.69839610     1.09030
C2063       C  0.56992647  0.55190912  0.87788142     1.08910
O2064       O  0.51499174  0.53882945  0.79988547    -0.80680
O2065       O  0.55922077  0.57674144  0.61470642    -0.80760
O2066       O  0.55757935  0.01202320  0.67501723    -0.80690
O2067       O  0.50374869  0.58397268  0.74254535    -0.80670
O2068       O  0.52399832  0.61235995  0.68044908    -0.80730
O2069       O  0.54559908  0.99827481  0.75552119    -0.80690
O2070       O  0.51054596  0.57849976  0.85167171    -0.80650
O2071       O  0.59632142  0.54718050  0.62688164    -0.80720
Co2072     Co  0.55950774  0.53719915  0.78796876     1.51530
Co2073     Co  0.56718439  0.60292698  0.67938254     1.51690
Co2074     Co  0.58913251  0.53874247  0.70383515     1.51570
Co2075     Co  0.53752968  0.57821260  0.79027288     1.51470
O2076       O  0.56071067  0.56681557  0.72493498    -1.42610
C2077       C  0.00213156  0.55225349  0.83841931     1.08940
C2078       C  0.57692400  0.55758081  0.59685376     1.09030
C2079       C  0.54348395  0.99475218  0.70482536     1.08960
C2080       C  0.50149584  0.60153646  0.70433578     1.08940
C2081       C  0.57535090  0.54779808  0.54017653    -0.06010
C2082       C  0.60018214  0.55141379  0.50756623    -0.33440
C2083       C  0.59760977  0.54791991  0.45152552     0.35810
C2084       C  0.57004416  0.54026882  0.42816956    -0.06370
C2085       C  0.54633298  0.53255393  0.46142829    -0.33340
C2086       C  0.54871059  0.53683645  0.51743078     0.35720
H2087       H  0.62095362  0.55919197  0.52518167     0.16090
O2088       O  0.62140979  0.55460615  0.41975941    -0.60830
H2089       H  0.52521339  0.52599241  0.44389213     0.16100
O2090       O  0.52448753  0.53205521  0.54926237    -0.60930
H2091       H  0.52606095  0.51147122  0.56134438     0.43100
H2092       H  0.63028387  0.53529847  0.41059270     0.43050
C2093       C  0.57417026  0.55958911  0.93511493    -0.06010
C2094       C  0.55084111  0.55318079  0.96985660    -0.33440
C2095       C  0.55031890  0.56592489  0.02191461     0.35810
C2096       C  0.57395283  0.58413796  0.04074100    -0.06370
C2097       C  0.59737251  0.59073127  0.00608906    -0.33340
C2098       C  0.59737944  0.57881834  0.95302700     0.35720
H2099       H  0.53222713  0.53947745  0.95574486     0.16090
O2100       O  0.52682221  0.56020563  0.05488850    -0.60830
H2101       H  0.61607915  0.60408806  0.02077865     0.16100
O2102       O  0.62015409  0.58585052  0.91912079    -0.60930
H2103       H  0.63397178  0.56939946  0.92170675     0.43100
H2104       H  0.00865904  0.58190501  0.02746819     0.43050
C2105       C  0.97149270  0.61031222  0.68874654    -0.06010
C2106       C  0.96693520  0.63781559  0.66586661    -0.33440
C2107       C  0.93838109  0.64774400  0.65756208     0.35810
C2108       C  0.91370236  0.63006046  0.67213456    -0.06370
C2109       C  0.91836506  0.60253783  0.69467864    -0.33340
C2110       C  0.94672235  0.59251485  0.70250431     0.35720
H2111       H  0.98553898  0.65200399  0.65553928     0.16090
O2112       O  0.93492959  0.67476477  0.63521398    -0.60830
H2113       H  0.89988135  0.58812859  0.70480562     0.16100
O2114       O  0.94986085  0.56508523  0.72351008    -0.60930
H2115       H  0.95119455  0.55123455  0.69164013     0.43100
H2116       H  0.93300192  0.68896583  0.66642532     0.43050
C2117       C  0.66203280  0.59311068  0.69222870    -0.06010
C2118       C  0.67542835  0.61672484  0.72186412    -0.33440
C2119       C  0.70559802  0.62337955  0.71607160     0.35810
C2120       C  0.72287800  0.60634056  0.67986312    -0.06370
C2121       C  0.70945568  0.58233047  0.65090777    -0.33340
C2122       C  0.67940158  0.57531035  0.65775134     0.35720
H2123       H  0.66244222  0.63019040  0.74935213     0.16090
O2124       O  0.71794210  0.64677638  0.74570116    -0.60830
H2125       H  0.72220516  0.56925798  0.62241641     0.16100
O2126       O  0.66695817  0.55153964  0.62925234    -0.60930
H2127       H  0.66868659  0.53456350  0.65326909     0.43100
H2128       H  0.70790790  0.66461108  0.73377931     0.43050
C2129       C  0.79464572  0.67278266  0.81983168    -0.06010
C2130       C  0.80588199  0.69998334  0.84166360    -0.33440
C2131       C  0.80949666  0.70452054  0.89799595     0.35810
C2132       C  0.80281637  0.68125183  0.93282399    -0.06370
C2133       C  0.78998539  0.65477223  0.91070843    -0.33340
C2134       C  0.78578688  0.65053263  0.85493849     0.35720
H2135       H  0.81292795  0.71725084  0.81486460     0.16090
O2136       O  0.82197302  0.73066425  0.91789013    -0.60830
H2137       H  0.78443894  0.63661644  0.93665956     0.16100
O2138       O  0.77538725  0.62354770  0.83476922    -0.60930
H2139       H  0.75383878  0.62560007  0.83143660     0.43100
H2140       H  0.80516970  0.74344648  0.92666687     0.43050
C2141       C  0.79546052  0.67084866  0.31766183    -0.06010
C2142       C  0.78536568  0.69563380  0.34744344    -0.33440
C2143       C  0.78849542  0.69768947  0.40449863     0.35810
C2144       C  0.80153210  0.67455967  0.43226234    -0.06370
C2145       C  0.81038624  0.64947717  0.40181959    -0.33340
C2146       C  0.80787225  0.64772491  0.34564273     0.35720
H2147       H  0.77626813  0.71389433  0.32642514     0.16090
O2148       O  0.77971790  0.72268247  0.43225520    -0.60830
H2149       H  0.82040104  0.63118983  0.42131689     0.16100
O2150       O  0.81798338  0.62316697  0.31804615    -0.60930
H2151       H  0.83960193  0.62638902  0.31580982     0.43100
H2152       H  0.75797958  0.72091383  0.43336835     0.43050
C2153       C  0.92361372  0.64047071  0.17621632    -0.06010
C2154       C  0.94652141  0.64170746  0.13777595    -0.33440
C2155       C  0.97562634  0.63412817  0.15043479     0.35810
C2156       C  0.98307687  0.62541959  0.20286848    -0.06370
C2157       C  0.96060709  0.62541472  0.24212176    -0.33340
C2158       C  0.93134864  0.63257916  0.22930846     0.35720
H2159       H  0.94181461  0.64785291  0.09679931     0.16090
O2160       O  0.99690655  0.63614208  0.11142096    -0.60830
H2161       H  0.96550586  0.61889465  0.28280991     0.16100
O2162       O  0.91039660  0.63086381  0.26893121    -0.60930
H2163       H  0.91020796  0.65096357  0.28634224     0.43100
H2164       H  0.99145995  0.62064872  0.08357432     0.43050
C2165       C  0.67111974  0.58798546  0.17515545    -0.06010
C2166       C  0.69008131  0.57407734  0.13757575    -0.33440
C2167       C  0.72002118  0.58295673  0.13340077     0.35810
C2168       C  0.73218185  0.60542639  0.16833303    -0.06370
C2169       C  0.71352617  0.61881650  0.20677882    -0.33340
C2170       C  0.68339202  0.61060392  0.20993560     0.35720
H2171       H  0.68145122  0.55676531  0.11003433     0.16090
O2172       O  0.73696248  0.57017972  0.09371702    -0.60830
H2173       H  0.72207513  0.63672699  0.23311343     0.16100
O2174       O  0.66626410  0.62467236  0.24778959    -0.60930
H2175       H  0.65988776  0.64289242  0.23051577     0.43100
H2176       H  0.74668149  0.55364982  0.11121910     0.43050
C2177       C  0.98595035  0.93947144  0.60889053    -0.06010
C2178       C  0.97452699  0.95893673  0.64824128    -0.33440
C2179       C  0.49325626  0.97422257  0.68489285     0.35810
C2180       C  0.52386965  0.97207261  0.67939631    -0.06370
C2181       C  0.53531903  0.95248778  0.64012521    -0.33340
C2182       C  0.51654410  0.93607282  0.60487374     0.35720
H2183       H  0.95126059  0.96313966  0.64880077     0.16090
O2184       O  0.98166532  0.99492350  0.72064281    -0.60830
H2185       H  0.55889424  0.95116334  0.63491989     0.16100
O2186       O  0.52827610  0.91818578  0.56503278    -0.60930
H2187       H  0.53155965  0.93111953  0.53390386     0.43100
H2188       H  0.97495700  0.98325481  0.75175181     0.43050
C2189       C  0.93118546  0.50570244  0.37510138    -0.06010
C2190       C  0.94442015  0.52879825  0.40656113    -0.33440
C2191       C  0.96227970  0.55029577  0.38236610     0.35810
C2192       C  0.96776776  0.54793257  0.32627218    -0.06370
C2193       C  0.95108840  0.02714264  0.29435994    -0.33340
C2194       C  0.93304824  0.00590150  0.31856113     0.35720
H2195       H  0.94237409  0.52912553  0.45022718     0.16090
O2196       O  0.97549956  0.57243532  0.41408431    -0.60830
H2197       H  0.95428264  0.02534085  0.25096528     0.16100
O2198       O  0.91963652  0.98381038  0.28703045    -0.60930
H2199       H  0.93412451  0.96786707  0.28389381     0.43100
H2200       H  0.99012262  0.56264691  0.43655538     0.43050
C2201       C  0.86847994  0.74819577  0.58299597    -0.06010
C2202       C  0.89173353  0.75157260  0.54615748    -0.33440
C2203       C  0.90341332  0.77984715  0.53474059     0.35810
C2204       C  0.89117099  0.80546239  0.55885392    -0.06370
C2205       C  0.86836460  0.80205253  0.59621704    -0.33340
C2206       C  0.85740493  0.77397500  0.60909225     0.35720
H2207       H  0.90068449  0.73228624  0.52563210     0.16090
O2208       O  0.92574031  0.78220912  0.49784192    -0.60830
H2209       H  0.85894622  0.82135212  0.61593770     0.16100
O2210       O  0.83487601  0.77230167  0.64566595    -0.60930
H2211       H  0.84454665  0.77191146  0.68158433     0.43100
H2212       H  0.94401285  0.77950123  0.51876792     0.43050
C2213       C  0.84172974  0.55735501  0.57931701    -0.06010
C2214       C  0.87131500  0.55315289  0.56674157    -0.33440
C2215       C  0.88218126  0.52484943  0.56000294     0.35810
C2216       C  0.86313075  0.49970759  0.56348585    -0.06370
C2217       C  0.83362515  0.50374199  0.57786040    -0.33340
C2218       C  0.82293122  0.53238225  0.58632991     0.35720
H2219       H  0.88646846  0.57198567  0.56373521     0.16090
O2220       O  0.91153290  0.52209854  0.54888442    -0.60830
H2221       H  0.81859924  0.98480983  0.58052033     0.16100
O2222       O  0.79408985  0.53570231  0.60068675    -0.60930
H2223       H  0.78341025  0.53782917  0.56612562     0.43100
H2224       H  0.92097969  0.51916438  0.58438353     0.43050
C2225       C  0.92227047  0.90833794  0.80514699    -0.06010
C2226       C  0.93040278  0.88178947  0.77868288    -0.33440
C2227       C  0.93069881  0.87918746  0.72167855     0.35810
C2228       C  0.92216772  0.90314111  0.69080193    -0.06370
C2229       C  0.91507142  0.92986791  0.71779739    -0.33340
C2230       C  0.91552390  0.93269897  0.77420514     0.35720
H2231       H  0.93555058  0.86282927  0.80216624     0.16090
O2232       O  0.93739112  0.85263738  0.69680380    -0.60830
H2233       H  0.90788791  0.94839187  0.69503410     0.16100
O2234       O  0.90791583  0.95904185  0.79886425    -0.60930
H2235       H  0.88620902  0.95778276  0.80229046     0.43100
H2236       H  0.91831208  0.84164389  0.69221918     0.43050
C2237       C  0.91330016  0.89392662  0.19395150    -0.06010
C2238       C  0.88952424  0.90708260  0.22015485    -0.33440
C2239       C  0.88667023  0.90709894  0.27621872     0.35810
C2240       C  0.90839344  0.89427523  0.30823945    -0.06370
C2241       C  0.93164844  0.87978224  0.28182087    -0.33340
C2242       C  0.93398868  0.87924713  0.22493358     0.35720
H2243       H  0.87311832  0.91812484  0.19700080     0.16090
O2244       O  0.86403559  0.92245437  0.29935140    -0.60830
H2245       H  0.94873611  0.87005039  0.30533419     0.16100
O2246       O  0.95725828  0.86565878  0.20043569    -0.60930
H2247       H  0.97295088  0.88128245  0.19853644     0.43100
H2248       H  0.84587130  0.91084641  0.28947383     0.43050
C2249       C  0.50117110  0.95100822  0.05499842    -0.06010
C2250       C  0.52941025  0.94217557  0.07017552    -0.33440
C2251       C  0.54841928  0.96183920  0.10059732     0.35810
C2252       C  0.53913233  0.99056085  0.11488617    -0.06370
C2253       C  0.51157749  0.99919852  0.09661190    -0.33340
C2254       C  0.00280550  0.98132444  0.04897876     0.35720
H2255       H  0.53624375  0.91990016  0.06011454     0.16090
O2256       O  0.57495238  0.95231108  0.11834184    -0.60830
H2257       H  0.50331355  0.52074064  0.10794197     0.16100
O2258       O  0.98101650  0.99400112  0.02021467    -0.60930
H2259       H  0.99123947  0.50712076  0.99448315     0.43100
H2260       H  0.57085126  0.94381232  0.15407193     0.43050
C2261       C  0.93908887  0.49840362  0.92273604    -0.06010
C2262       C  0.96420539  0.98695390  0.89880426    -0.33440
C2263       C  0.98457804  0.00460904  0.87320875     0.35810
C2264       C  0.98011724  0.53508647  0.86914394    -0.06370
C2265       C  0.95507388  0.54740237  0.89368365    -0.33340
C2266       C  0.93428461  0.52899197  0.92014701     0.35720
H2267       H  0.96899721  0.96396745  0.90025761     0.16090
O2268       O  0.51055105  0.99171847  0.85670807    -0.60830
H2269       H  0.95138544  0.57088197  0.89139478     0.16100
O2270       O  0.90993601  0.54103468  0.94368544    -0.60930
H2271       H  0.89406250  0.53803368  0.91635636     0.43100
H2272       H  0.52214296  0.98628476  0.88870326     0.43050
C2273       C  0.86968182  0.75367713  0.07837444    -0.06010
C2274       C  0.87706720  0.76153850  0.02547324    -0.33440
C2275       C  0.88009603  0.79147605  0.01178898     0.35810
C2276       C  0.87544427  0.81441312  0.05106315    -0.06370
C2277       C  0.86864881  0.80653824  0.10399242    -0.33340
C2278       C  0.86597465  0.77674352  0.11787338     0.35720
H2279       H  0.87952304  0.74447132  0.99406245     0.16090
O2280       O  0.88743148  0.79800695  0.95969810    -0.60830
H2281       H  0.86612275  0.82358651  0.13544768     0.16100
O2282       O  0.86013906  0.77039467  0.17069441    -0.60930
H2283       H  0.84009610  0.77756690  0.17772990     0.43100
H2284       H  0.86841654  0.80009256  0.94078267     0.43050
C2285       C  0.85397512  0.50192274  0.03814856    -0.06010
C2286       C  0.82755240  0.51515704  0.02420086    -0.33440
C2287       C  0.82251542  0.54485221  0.03984741     0.35810
C2288       C  0.84408236  0.56152068  0.06948274    -0.06370
C2289       C  0.87081887  0.54868691  0.08130911    -0.33340
C2290       C  0.87585947  0.51921395  0.06606694     0.35720
H2291       H  0.81051799  0.00225451  0.00272415     0.16090
O2292       O  0.79617023  0.55701291  0.02773699    -0.60830
H2293       H  0.88783919  0.56155576  0.10299247     0.16100
O2294       O  0.90262691  0.50765778  0.07749935    -0.60930
H2295       H  0.90170038  0.50275024  0.11624161     0.43100
H2296       H  0.79947013  0.56687656  0.99299523     0.43050
C2297       C  0.69024581  0.74102605  0.98249132    -0.06010
C2298       C  0.68751266  0.74645150  0.03869267    -0.33440
C2299       C  0.70110129  0.72844579  0.07572209     0.35810
C2300       C  0.71837576  0.70498081  0.05673173    -0.06370
C2301       C  0.71940026  0.69834695  0.00073322    -0.33340
C2302       C  0.70544915  0.71598803  0.96378773     0.35720
H2303       H  0.67543180  0.76520750  0.05411922     0.16090
O2304       O  0.69971123  0.73580188  0.12991948    -0.60830
H2305       H  0.73276569  0.68051024  0.98517795     0.16100
O2306       O  0.70880250  0.70983045  0.90945469    -0.60930
H2307       H  0.69345751  0.69445123  0.90013001     0.43100
H2308       H  0.68138347  0.72594155  0.14270330     0.43050
C2309       C  0.73201768  0.79262171  0.76913603    -0.06010
C2310       C  0.73463253  0.76259012  0.77750243    -0.33440
C2311       C  0.74884230  0.74440252  0.74101026     0.35810
C2312       C  0.76280190  0.75602959  0.69500267    -0.06370
C2313       C  0.76047681  0.78638712  0.68565744    -0.33340
C2314       C  0.74477090  0.80474866  0.72236888     0.35720
H2315       H  0.72413052  0.75220569  0.81160195     0.16090
O2316       O  0.74633069  0.71455757  0.74838416    -0.60830
H2317       H  0.77052758  0.79572314  0.65019131     0.16100
O2318       O  0.74207577  0.83416186  0.71229589    -0.60930
H2319       H  0.72678296  0.83470550  0.68377957     0.43100
H2320       H  0.75312292  0.71139595  0.78579826     0.43050
C2321       C  0.73603514  0.87970843  0.93282530    -0.06010
C2322       C  0.75621700  0.89328473  0.89793735    -0.33440
C2323       C  0.78526547  0.89901180  0.91365020     0.35810
C2324       C  0.79489769  0.89124647  0.96528248    -0.06370
C2325       C  0.77471871  0.87862920  0.00118968    -0.33340
C2326       C  0.74552177  0.87245492  0.98511276     0.35720
H2327       H  0.74966977  0.89923367  0.85770738     0.16090
O2328       O  0.80404477  0.91253656  0.87816235    -0.60830
H2329       H  0.78176318  0.87290303  0.04126386     0.16100
O2330       O  0.72661962  0.85930239  0.02078599    -0.60930
H2331       H  0.72996797  0.83776235  0.01639923     0.43100
H2332       H  0.80313722  0.93401799  0.88747334     0.43050
C2333       C  0.54882424  0.83426637  0.92782567    -0.06010
C2334       C  0.53633442  0.85776570  0.90199831    -0.33440
C2335       C  0.50723558  0.86465598  0.91231712     0.35810
C2336       C  0.49105009  0.84865700  0.95097863    -0.06370
C2337       C  0.50292541  0.82365744  0.97328474    -0.33340
C2338       C  0.53169226  0.81624378  0.96160423     0.35720
H2339       H  0.54947304  0.87143759  0.87555543     0.16090
O2340       O  0.99661940  0.88979226  0.88915442    -0.60830
H2341       H  0.49064965  0.81113268  0.00273360     0.16100
O2342       O  0.54365752  0.79290047  0.98700192    -0.60930
H2343       H  0.55176027  0.80142617  0.02161697     0.43100
H2344       H  0.98706425  0.88249193  0.85496915     0.43050
C2345       C  0.56793358  0.66740371  0.80783951    -0.06010
C2346       C  0.56609416  0.69245697  0.77671426    -0.33440
C2347       C  0.57698228  0.71981888  0.79665175     0.35810
C2348       C  0.59039716  0.72213694  0.84816848    -0.06370
C2349       C  0.58953517  0.69760517  0.88144141    -0.33340
C2350       C  0.57834493  0.67017655  0.86140102     0.35720
H2351       H  0.55733158  0.69053626  0.73590492     0.16090
O2352       O  0.57530527  0.74401291  0.76485518    -0.60830
H2353       H  0.59963055  0.69905526  0.92119613     0.16100
O2354       O  0.57976014  0.64584938  0.89278562    -0.60930
H2355       H  0.59956410  0.63794620  0.88605866     0.43100
H2356       H  0.59034133  0.74117653  0.73627540     0.43050
C2357       C  0.63138991  0.91905748  0.81821679    -0.06010
C2358       C  0.63206391  0.94479202  0.85193236    -0.33440
C2359       C  0.62722466  0.97255339  0.83093923     0.35810
C2360       C  0.62181220  0.97498838  0.77520714    -0.06370
C2361       C  0.62095803  0.94922661  0.74161882    -0.33340
C2362       C  0.62518494  0.92144540  0.76281599     0.35720
H2363       H  0.63676757  0.94350300  0.89473259     0.16090
O2364       O  0.62761503  0.99702786  0.86539833    -0.60830
H2365       H  0.61576591  0.95041038  0.69898076     0.16100
O2366       O  0.62239145  0.89676731  0.72918739    -0.60930
H2367       H  0.60161391  0.88986690  0.73260246     0.43100
H2368       H  0.64805991  0.00518546  0.86419116     0.43050
C2369       C  0.63863678  0.82825217  0.57781264    -0.06010
C2370       C  0.65601637  0.84984148  0.60648801    -0.33440
C2371       C  0.65849400  0.84990837  0.66273421     0.35810
C2372       C  0.64330459  0.82814534  0.69165378    -0.06370
C2373       C  0.62437388  0.80763445  0.66363462    -0.33340
C2374       C  0.62178423  0.80771555  0.60699483     0.35720
H2375       H  0.66909655  0.86602265  0.58499951     0.16090
O2376       O  0.67840986  0.86909227  0.68841817    -0.60830
H2377       H  0.61257282  0.79069556  0.68552912     0.16100
O2378       O  0.60438974  0.78649434  0.58063590    -0.60930
H2379       H  0.61737626  0.76957272  0.57336577     0.43100
H2380       H  0.67233024  0.88931686  0.68005912     0.43050
C2381       C  0.63179975  0.81226663  0.20689821    -0.06010
C2382       C  0.63182184  0.83853220  0.17837838    -0.33440
C2383       C  0.62971952  0.83772175  0.12211544     0.35810
C2384       C  0.62689886  0.81030728  0.09327767    -0.06370
C2385       C  0.62449884  0.78411067  0.12205360    -0.33340
C2386       C  0.62725658  0.78493043  0.17856970     0.35720
H2387       H  0.63568206  0.85976677  0.19933990     0.16090
O2388       O  0.63163464  0.86388228  0.09567198    -0.60830
H2389       H  0.62200466  0.76285630  0.10061227     0.16100
O2390       O  0.62711989  0.75890694  0.20548521    -0.60930
H2391       H  0.60639256  0.75150594  0.20461570     0.43100
H2392       H  0.61102966  0.86988513  0.09102487     0.43050
C2393       C  0.69387351  0.74514335  0.49268367    -0.06010
C2394       C  0.69978589  0.71619436  0.47479940    -0.33440
C2395       C  0.70950380  0.69553122  0.51104176     0.35810
C2396       C  0.71328014  0.70369448  0.56619981    -0.06370
C2397       C  0.70491059  0.73190395  0.58479839    -0.33340
C2398       C  0.69516401  0.75266393  0.54832892     0.35720
H2399       H  0.69758049  0.70979505  0.43228455     0.16090
O2400       O  0.71666427  0.66777443  0.49194060    -0.60830
H2401       H  0.70856579  0.73887609  0.62672047     0.16100
O2402       O  0.68966180  0.78100072  0.56644817    -0.60930
H2403       H  0.67532574  0.77899739  0.59632176     0.43100
H2404       H  0.73547397  0.67048726  0.47226733     0.43050
C2405       C  0.77577860  0.76880183  0.18149055    -0.06010
C2406       C  0.75400334  0.78593538  0.15851626    -0.33440
C2407       C  0.73691524  0.80485390  0.19124968     0.35810
C2408       C  0.74216427  0.80738977  0.24755169    -0.06370
C2409       C  0.76624463  0.79286884  0.26890430    -0.33340
C2410       C  0.78275635  0.77355172  0.23665679     0.35720
H2411       H  0.74825141  0.78252256  0.11616384     0.16090
O2412       O  0.71366727  0.81860626  0.16856629    -0.60830
H2413       H  0.77094282  0.79465223  0.31190124     0.16100
O2414       O  0.80405253  0.75748300  0.26048075    -0.60930
H2415       H  0.82023686  0.77193584  0.26986027     0.43100
H2416       H  0.69744287  0.80345071  0.16666123     0.43050
C2417       C  0.75025761  0.88638215  0.41539732    -0.06010
C2418       C  0.77344055  0.87683935  0.38260814    -0.33440
C2419       C  0.80211794  0.88682243  0.39417156     0.35810
C2420       C  0.80729928  0.90761307  0.43693867    -0.06370
C2421       C  0.78401168  0.91842064  0.46767937    -0.33340
C2422       C  0.75554567  0.90753143  0.45776508     0.35720
H2423       H  0.76948415  0.86062919  0.34984252     0.16090
O2424       O  0.82499072  0.87572023  0.36449023    -0.60830
H2425       H  0.78813264  0.93403892  0.50133752     0.16100
O2426       O  0.73299439  0.91781136  0.48933785    -0.60930
H2427       H  0.73352316  0.90617875  0.52257503     0.43100
H2428       H  0.83031578  0.85733428  0.38239647     0.43050
C2429       C  0.56924766  0.85748575  0.41345951    -0.06010
C2430       C  0.55338614  0.87008799  0.37206392    -0.33440
C2431       C  0.52565645  0.88151151  0.38304202     0.35810
C2432       C  0.51355598  0.87928355  0.43522243    -0.06370
C2433       C  0.52871471  0.86503138  0.47526503    -0.33340
C2434       C  0.55671276  0.85490255  0.46520476     0.35720
H2435       H  0.56295685  0.87217177  0.33223640     0.16090
O2436       O  0.01089302  0.89530827  0.34349110    -0.60830
H2437       H  0.51944773  0.86308896  0.51539248     0.16100
O2438       O  0.57179482  0.84270122  0.50651347    -0.60930
H2439       H  0.58046228  0.85976588  0.52798091     0.43100
H2440       H  0.51819265  0.91496780  0.34182374     0.43050
C2441       C  0.60651727  0.72361734  0.35526842    -0.06010
C2442       C  0.62396605  0.69907990  0.36224406    -0.33440
C2443       C  0.61776865  0.67236370  0.33420373     0.35810
C2444       C  0.59434119  0.67010363  0.29680652    -0.06370
C2445       C  0.57655880  0.69461784  0.29010963    -0.33340
C2446       C  0.58242542  0.72130032  0.31950124     0.35720
H2447       H  0.64305640  0.70091460  0.38857794     0.16090
O2448       O  0.63548031  0.64885126  0.34211479    -0.60830
H2449       H  0.55787052  0.69290568  0.26286634     0.16100
O2450       O  0.56500026  0.74507998  0.31209736    -0.60930
H2451       H  0.57533805  0.75712721  0.28489302     0.43100
H2452       H  0.62863874  0.64028321  0.37642237     0.43050
C2453       C  0.64957967  0.93559694  0.32176948    -0.06010
C2454       C  0.65622457  0.94940456  0.27300781    -0.33440
C2455       C  0.64276659  0.97570899  0.25970963     0.35810
C2456       C  0.62191430  0.98833517  0.29484138    -0.06370
C2457       C  0.61619739  0.97548423  0.34449828    -0.33340
C2458       C  0.63004428  0.94956007  0.35847704     0.35720
H2459       H  0.67107669  0.93923382  0.24415638     0.16090
O2460       O  0.64815683  0.98741625  0.21016079    -0.60830
H2461       H  0.60000772  0.98492020  0.37163708     0.16100
O2462       O  0.62303793  0.93732639  0.40694769    -0.60930
H2463       H  0.60493781  0.92503999  0.39974649     0.43100
H2464       H  0.66441684  0.00222888  0.21649350     0.43050
loop_ 
_geom_bond_atom_site_label_1 
_geom_bond_atom_site_label_2 
_geom_bond_distance 
_geom_bond_site_symmetry_2 
_ccdc_geom_bond_type 
O1            C9   1.299       .  A
O1          Co21   2.092       .  S
O2           C10   1.293       .  A
O2          Co22   2.068       .  S
O3           C11   1.265       .  A
O3          Co23   1.951       .  S
O4           C12   1.262       .  A
O4          Co24   1.963       .  S
O5           C11   1.276       .  A
O5          Co22   2.023       .  S
O6           C12   1.268       .  A
O6          Co21   1.995       .  S
O7           C10   1.275       .  A
O7          Co24   1.903       .  S
O8            C9   1.274       .  A
O8          Co23   1.891       .  S
C9          C605   1.488       .  S
C10         C593   1.463       .  S
C11         C533   1.471       .  S
C12         C581   1.457       .  S
O13          C26   1.256       .  A
O13         Co21   1.947       .  S
O14          C27   1.258       .  A
O14         Co22   1.967       .  S
O15          C28   1.258       .  A
O15         Co23   2.000       .  S
O16          C29   1.259       .  A
O16         Co24   2.015       .  S
O17          C29   1.258       .  A
O17         Co22   1.966       .  S
O18          C28   1.249       .  A
O18         Co21   1.934       .  S
O19          C26   1.273       .  A
O19         Co24   2.032       .  S
O20          C27   1.270       .  A
O20         Co23   2.034       .  S
Co21         O25   2.069       .  S
Co22         O25   2.066       .  S
Co23         O25   1.979       .  S
Co24         O25   1.978       .  S
C26         C521   1.480       .  S
C27         C560   1.486       .  S
C28         C569   1.456       .  S
C29         C545   1.469       .  S
O30          C38   1.294       .  A
O30         Co50   2.075   1_554  S
O31          C39   1.248       .  A
O31         Co51   1.965       .  S
O32          C40   1.250       .  A
O32         Co52   1.977       .  S
O33          C41   1.274       .  A
O33         Co53   1.887       .  S
O34          C40   1.261       .  A
O34         Co51   2.013       .  S
O35          C41   1.299       .  A
O35         Co50   2.075       .  S
O36          C39   1.241       .  A
O36         Co53   2.005       .  S
O37          C38   1.264       .  A
O37         Co52   1.893   1_554  S
C38         C536   1.475       .  S
C39         C461   1.475       .  S
C40         C449   1.483       .  S
C41         C473   1.481       .  S
O42          C55   1.259       .  A
O42         Co50   2.015       .  S
O43          C56   1.258       .  A
O43         Co51   1.946       .  S
O44          C57   1.244       .  A
O44         Co52   1.921       .  S
O45          C58   1.293       .  A
O45         Co53   2.035       .  S
O46          C58   1.272       .  A
O46         Co51   2.003       .  S
O47          C57   1.264       .  A
O47         Co50   2.001       .  S
O48          C55   1.263       .  A
O48         Co53   1.977       .  S
O49          C56   1.271       .  A
O49         Co52   2.019       .  S
Co50         O54   2.195       .  S
Co51         O54   2.052       .  S
Co52         O54   1.927       .  S
Co53         O54   1.933       .  S
C55         C509   1.477       .  S
C56         C500   1.468       .  S
C57         C485   1.449       .  S
C58         C524   1.475       .  S
O59          C67   1.280       .  A
O59         Co79   2.055       .  S
O60          C68   1.267   1_554  A
O60         Co80   2.009       .  S
O61          C69   1.267       .  A
O61         Co81   1.960       .  S
O62          C70   1.260       .  A
O62         Co82   1.984       .  S
O63          C69   1.291       .  A
O63         Co80   2.065       .  S
O64          C70   1.264       .  A
O64         Co79   2.016       .  S
O65          C68   1.256       .  A
O65         Co82   1.952       .  S
O66          C67   1.264   1_554  A
O66         Co81   1.899       .  S
C67        C1720   1.457       .  S
C68         C476   1.471       .  S
C69         C428   1.493       .  S
C70         C377   1.474       .  S
O71          C84   1.260       .  A
O71         Co79   1.968       .  S
O72          C85   1.251       .  A
O72         Co80   1.964       .  S
O73        C1318   1.296       .  A
O73         Co81   2.106       .  S
O74          C87   1.276   1_556  A
O74         Co82   2.035       .  S
O75          C87   1.263       .  A
O75         Co80   1.958       .  S
O76        C1318   1.263   1_556  A
O76         Co79   1.915       .  S
O77          C84   1.270       .  A
O77         Co82   2.029       .  S
O78          C85   1.254       .  A
O78         Co81   2.016       .  S
Co79         O83   1.993       .  S
Co80         O83   2.024   1_554  S
Co81         O83   2.030   1_554  S
Co82         O83   2.054       .  S
C84        C1029   1.475       .  S
C85         C389   1.480       .  S
C86        O1305   1.298       .  A
C86        O1308   1.264   1_554  A
C86         C401   1.477   1_655  S
C87        C1053   1.486       .  S
O88          C96   1.271       .  A
O88        Co108   1.865       .  S
O89          C97   1.259       .  A
O89        Co109   1.967       .  S
O90          C98   1.277       .  A
O90        Co110   1.872       .  S
O91          C99   1.245       .  A
O91        Co111   1.947       .  S
O92          C98   1.312       .  A
O92        Co109   2.122       .  S
O93          C99   1.257       .  A
O93        Co108   2.019       .  S
O94          C97   1.263       .  A
O94        Co111   1.988       .  S
O95          C96   1.303       .  A
O95        Co110   2.092       .  S
C96        C1816   1.456       .  S
C97         C572   1.446       .  S
C98         C356   1.486       .  S
C99         C392   1.489       .  S
O100        C113   1.303       .  A
O100       Co108   2.089       .  S
O101        C114   1.256       .  A
O101       Co109   1.948       .  S
O102        C115   1.295       .  A
O102       Co110   2.069       .  S
O103        C116   1.264       .  A
O103       Co111   1.928       .  S
O104        C116   1.290       .  A
O104       Co109   2.062       .  S
O105        C115   1.261       .  A
O105       Co108   1.942       .  S
O106        C113   1.273       .  A
O106       Co111   1.878       .  S
O107        C114   1.292       .  A
O107       Co110   2.078       .  S
Co108       O112   1.950       .  S
Co109       O112   2.016       .  S
Co110       O112   1.920       .  S
Co111       O112   1.887       .  S
C113        C957   1.460       .  S
C114        C380   1.482       .  S
C115        C329   1.464       .  S
C116        C984   1.479       .  S
O117        C125   1.271       .  A
O117       Co137   1.952       .  S
O118        C126   1.265       .  A
O118       Co138   1.985       .  S
O119        C127   1.268   1_554  A
O119       Co139   2.038       .  S
O120        C128   1.282       .  A
O120       Co140   2.083       .  S
O121        C127   1.253   1_554  A
O121       Co138   1.963       .  S
O122        C128   1.252       .  A
O122       Co137   1.971       .  S
O123        C126   1.267       .  A
O123       Co140   1.988       .  S
O124        C125   1.278       .  A
O124       Co139   2.041       .  S
C125        C452   1.476       .  S
C126        C440   1.476       .  S
C127        C284   1.486       .  S
C128        C320   1.500       .  S
O129        C142   1.272       .  A
O129       Co137   2.041       .  S
O130        C143   1.280       .  A
O130       Co138   2.075       .  S
O131        C144   1.265       .  A
O131       Co139   1.947       .  S
O132        C145   1.274       .  A
O132       Co140   2.019       .  S
O133        C145   1.272       .  A
O133       Co138   2.008       .  S
O134        C144   1.284       .  A
O134       Co137   2.065       .  S
O135        C142   1.256       .  A
O135       Co140   1.964       .  S
O136        C143   1.248       .  A
O136       Co139   1.951       .  S
Co137       O141   2.066       .  S
Co138       O141   2.077       .  S
Co139       O141   2.038       .  S
Co140       O141   2.070       .  S
C142        C293   1.483       .  S
C143        C425   1.499       .  S
C144        C557   1.482       .  S
C145        C305   1.525       .  S
O146        C154   1.271       .  A
O146       Co166   1.956       .  S
O147        C155   1.271       .  A
O147       Co167   1.999       .  S
O148        C156   1.278       .  A
O148       Co168   2.045       .  S
O149        C157   1.268       .  A
O149       Co169   2.053       .  S
O150        C156   1.263       .  A
O150       Co167   1.963       .  S
O151        C157   1.248       .  A
O151       Co166   1.975       .  S
O152        C155   1.257       .  A
O152       Co169   1.955       .  S
O153        C154   1.276       .  A
O153       Co168   2.034       .  S
C154        C548   1.468       .  S
C155        C365   1.473       .  S
C156        C296   1.498       .  S
C157        C272   1.485       .  S
O158        C171   1.274       .  A
O158       Co166   2.036       .  S
O159        C172   1.269       .  A
O159       Co167   2.045       .  S
O160        C173   1.275       .  A
O160       Co168   1.979       .  S
O161        C174   1.270       .  A
O161       Co169   2.002       .  S
O162        C174   1.260       .  A
O162       Co167   1.962       .  S
O163        C173   1.273       .  A
O163       Co166   2.025       .  S
O164        C171   1.259       .  A
O164       Co169   1.968       .  S
O165        C172   1.247       .  A
O165       Co168   1.969       .  S
Co166       O170   2.018       .  S
Co167       O170   2.067       .  S
Co168       O170   2.051       .  S
Co169       O170   2.085       .  S
C171        C281   1.476       .  S
C172        C353   1.493       .  S
C173        C464   1.482       .  S
C174        C260   1.485       .  S
O175        C183   1.274       .  A
O175       Co811   2.015       .  S
O176        C184   1.258       .  A
O176       Co196   2.017       .  S
O177        C185   1.272       .  A
O177       Co197   1.901       .  S
O178        C186   1.261       .  A
O178       Co198   1.947       .  S
O179        C185   1.311       .  A
O179       Co196   2.150       .  S
O180        C186   1.276       .  A
O180       Co195   2.030       .  S
O181        C184   1.246       .  A
O181       Co198   1.956       .  S
O182        C799   1.266       .  A
O182       Co197   1.972       .  S
C183        O798   1.266       .  A
C183        C608   1.472       .  S
C184        C596   1.473       .  S
C185        C317   1.513       .  S
C186        C236   1.465       .  S
O187        C200   1.253   1_455  A
O187       Co195   1.958       .  S
O188        C201   1.267       .  A
O188       Co196   1.908       .  S
O189        C202   1.274       .  A
O189       Co813   2.046       .  S
O190        C203   1.287       .  A
O190       Co198   2.054       .  S
O191        C203   1.278       .  A
O191       Co196   2.000       .  S
O192        C202   1.255       .  A
O192       Co811   1.941       .  S
O193        C200   1.266   1_455  A
O193       Co198   2.017       .  S
O194        C201   1.287       .  A
O194       Co197   2.074       .  S
Co195       O791   2.015       .  S
Co195       O808   1.941       .  S
Co195       O199   2.012       .  S
Co196       O199   2.018       .  S
Co197       O805   2.046       .  S
Co197       O199   2.006       .  S
Co198       O199   2.020       .  S
C200       C1576   1.479       .  S
C201        C248   1.456       .  S
C202        C404   1.473       .  S
C203       C1540   1.515   1_455  S
O204        C212   1.296       .  A
O204       Co840   2.065       .  S
O205        C213   1.262       .  A
O205       Co225   1.973       .  S
O206        C214   1.257       .  A
O206       Co226   1.981       .  S
O207        C215   1.288       .  A
O207       Co227   2.038       .  S
O208        C214   1.273       .  A
O208       Co225   2.034       .  S
O209        C215   1.278       .  A
O209       Co224   1.913       .  S
O210        C213   1.257       .  A
O210       Co227   1.964       .  S
O211        C212   1.272       .  A
O211       Co842   1.889       .  S
C212        C512   1.475       .  S
C213        C497   1.457       .  S
C214        C269   1.478       .  S
C215        C245   1.456       .  S
O216       C1461   1.281       .  A
O216       Co224   2.050       .  S
O217        C230   1.269       .  A
O217       Co225   1.983       .  S
O218        C231   1.256       .  A
O218       Co842   1.965       .  S
O219        C232   1.261       .  A
O219       Co227   1.965       .  S
O220        C232   1.276       .  A
O220       Co225   2.024       .  S
O221        C231   1.261       .  A
O221       Co840   1.991       .  S
O222       C1461   1.267       .  A
O222       Co227   1.954       .  S
O223        C230   1.266       .  A
O223       Co226   1.983       .  S
Co224       O820   2.065       .  S
Co224       O837   1.991   1_545  S
Co224       O228   2.090       .  S
Co225       O228   2.031       .  S
Co226       O827   1.889       .  S
Co226       O834   1.965       .  S
Co226       O228   1.898       .  S
Co227       O228   1.993       .  S
C229       O1448   1.281       .  A
C229       O1454   1.266       .  A
C229        C416   1.478       .  S
C230        C233   1.458       .  S
C231        C332   1.462       .  S
C232       C1489   1.486   1_455  S
C233        C234   1.398       .  A
C233        C238   1.406       .  A
C234        C235   1.394       .  A
C234        H239   1.084       .  S
C235        C236   1.410       .  A
C235        O240   1.372       .  S
C236        C237   1.401       .  A
C237        C238   1.397       .  A
C237        H241   1.083       .  S
C238        O242   1.372       .  S
O240        H244   0.991       .  S
O242        H243   0.992       .  S
C245        C246   1.399       .  A
C245        C250   1.406       .  A
C246        C247   1.395   1_556  A
C246        H251   1.084       .  S
C247        C248   1.401       .  A
C247        O252   1.372       .  S
C248        C249   1.402       .  A
C249        C250   1.400   1_554  A
C249        H253   1.084       .  S
C250        O254   1.371       .  S
O252       H1488   0.992       .  S
O254        H255   0.992       .  S
H256       O1484   0.992       .  S
C257       C1464   1.486       .  S
C257        C258   1.405       .  A
C257        C262   1.414       .  A
C258        C259   1.405       .  A
C258        H263   1.083       .  S
C259        C260   1.414       .  A
C259        O264   1.372       .  S
C260        C261   1.403       .  A
C261        C262   1.396       .  A
C261        H265   1.084       .  S
C262        O266   1.372       .  S
O264        H268   0.992       .  S
O266        H267   0.992       .  S
C269        C270   1.398       .  A
C269        C274   1.410       .  A
C270        C271   1.405       .  A
C270        H275   1.084       .  S
C271        C272   1.415       .  A
C271        O276   1.371       .  S
C272        C273   1.403       .  A
C273        C274   1.407       .  A
C273        H277   1.084       .  S
C274        O278   1.371       .  S
O276        H280   0.992       .  S
O278        H279   0.992       .  S
C281        C282   1.407       .  A
C281        C286   1.402       .  A
C282        C283   1.410       .  A
C282        H287   1.084       .  S
C283        C284   1.409       .  A
C283        O288   1.371       .  S
C284        C285   1.408       .  A
C285        C286   1.398       .  A
C285        H289   1.084       .  S
C286        O290   1.372       .  S
O288        H292   0.992       .  S
O290        H291   0.991       .  S
C293        C294   1.408       .  A
C293        C298   1.406       .  A
C294        C295   1.418       .  A
C294        H299   1.083       .  S
C295        C296   1.415       .  A
C295        O300   1.371       .  S
C296        C297   1.408       .  A
C297        C298   1.393       .  A
C297        H301   1.083       .  S
C298        O302   1.374       .  S
O300        H304   0.991       .  S
O302        H303   0.992       .  S
C305        C306   1.413       .  A
C305        C310   1.420       .  A
C306        C307   1.415       .  A
C306        H311   1.083       .  S
C307        C308   1.414       .  A
C307        O312   1.371       .  S
C308       C1435   1.517       .  S
C308        C309   1.411       .  A
C309        C310   1.418       .  A
C309        H313   1.083       .  S
C310        O314   1.371       .  S
O312        H316   0.991       .  S
O314        H315   0.992       .  S
C317        C318   1.414       .  A
C317        C322   1.414       .  A
C318        C319   1.414       .  A
C318        H323   1.083       .  S
C319        C320   1.409       .  A
C319        O324   1.371       .  S
C320        C321   1.409       .  A
C321        C322   1.414       .  A
C321        H325   1.083       .  S
C322        O326   1.370       .  S
O324        H328   0.992       .  S
O326        H327   0.992       .  S
C329        C330   1.400       .  A
C329       C1566   1.405       .  A
C330       C1563   1.399       .  A
C330        H335   1.081       .  S
C331        C332   1.406   1_655  A
C331       C1562   1.398       .  A
C331       O1568   1.372       .  S
C332        C333   1.402       .  A
C333        C334   1.398       .  A
C333        H337   1.084       .  S
C334       C1561   1.405   1_455  A
C334        O338   1.371       .  S
O336       C1563   1.372       .  S
O336        H340   0.992       .  S
O338        H339   0.992       .  S
C341        C729   1.460   1_545  S
C341        C342   1.401       .  A
C341        C962   1.401       .  A
C342        C343   1.400       .  A
C342        H347   1.084       .  S
C343        C344   1.410       .  A
C343        O348   1.373       .  S
C344       C1432   1.479       .  S
C344        C961   1.410       .  A
C345        C346   1.396       .  A
C345        C960   1.410       .  A
C345        H349   1.084       .  S
C346        C957   1.401       .  A
C346        O350   1.373       .  S
O348        H352   0.991       .  S
O350        H351   0.992       .  S
C353        C354   1.406       .  A
C353        C358   1.418       .  A
C354        C355   1.408       .  A
C354        H359   1.083       .  S
C355        C356   1.413       .  A
C355        O360   1.371       .  S
C356        C357   1.399       .  A
C357        C358   1.398       .  A
C357        H361   1.084       .  S
C358        O362   1.370       .  S
O360        H364   0.992       .  S
O362        H363   0.992       .  S
C365        C366   1.399       .  A
C365        C370   1.412       .  A
C366        C367   1.390       .  A
C366        H371   1.084       .  S
C367        C368   1.414   1_545  A
C367        O372   1.373       .  S
C368        C732   1.479       .  S
C368        C369   1.405   1_565  A
C369        C370   1.405       .  A
C369        H989   1.083   1_545  S
C370        O374   1.371       .  S
O372        H376   0.992       .  S
H373        C985   1.083       .  S
O374        H375   0.992       .  S
C377        C378   1.405       .  A
C377        C382   1.404       .  A
C378        C379   1.410       .  A
C378        H383   1.083       .  S
C379        C380   1.410       .  A
C379        O384   1.371       .  S
C380        C381   1.405       .  A
C381        C382   1.396       .  A
C381        H385   1.084       .  S
C382        O386   1.372       .  S
O384        H388   0.992       .  S
O386        H387   0.992       .  S
C389        C390   1.399       .  A
C389        C394   1.409       .  A
C390        C391   1.393       .  A
C390        H395   1.084       .  S
C391        C392   1.416       .  A
C391        O396   1.373       .  S
C392        C393   1.410       .  A
C393        C394   1.411       .  A
C393        H397   1.083       .  S
C394        O398   1.371       .  S
O396        H400   0.991       .  S
O398        H399   0.992       .  S
C401        C402   1.408       .  A
C401       C1638   1.404       .  A
C402        C403   1.414       .  A
C402        H407   1.083       .  S
C403        C404   1.410       .  A
C403        O408   1.371       .  S
C404        C405   1.396       .  A
C405       C1638   1.390       .  A
C405       H1025   1.076       .  S
C406       C1633   1.399       .  A
C406       C1637   1.380       .  A
C406        O410   1.368       .  S
O408        H412   0.992       .  S
H409       C1021   1.076   1_545  S
O410       H1027   0.992       .  S
H411       O1026   0.992   1_545  S
C413        C700   1.475       .  S
C413        C418   1.410   1_565  A
C413       C1030   1.392       .  A
C414        C415   1.377       .  A
C414       C1029   1.392       .  A
C414        H419   1.071       .  S
C415       C1032   1.406       .  A
C415       O1652   1.373       .  S
C416        C417   1.412       .  A
C416       C1031   1.406       .  A
C417        C418   1.418       .  A
C417        H421   1.083       .  S
C418        O422   1.371       .  S
O420       C1647   1.373   1_455  S
O420        H424   0.992       .  S
O422        H423   0.992       .  S
C425        C426   1.407       .  A
C425        C430   1.418       .  A
C426        C427   1.410       .  A
C426        H431   1.083   1_554  S
C427        C428   1.416       .  A
C427        O432   1.371   1_554  S
C428        C429   1.401       .  A
C429        C430   1.404       .  A
C429        H433   1.084       .  S
C430        O434   1.372       .  S
O432        H436   0.992       .  S
O434        H435   0.991       .  S
C437        C703   1.486   1_545  S
C437        C438   1.407       .  A
C437        C442   1.413       .  A
C438        C439   1.410       .  A
C438       H1059   1.083   1_554  S
C439        C440   1.409       .  A
C439        O444   1.371       .  S
C440        C441   1.399       .  A
C441        C442   1.398       .  A
C441        H445   1.084       .  S
C442        O446   1.373       .  S
H443       C1054   1.083   1_556  S
O444        H448   0.992   1_554  S
O446        H447   0.992       .  S
C449        C450   1.409   1_556  A
C449        C454   1.408       .  A
C450        C451   1.402       .  A
C450        H455   1.082       .  S
C451        C452   1.407       .  A
C451        O456   1.371       .  S
C452        C453   1.407       .  A
C453        C454   1.398   1_554  A
C453        H457   1.084   1_554  S
C454        O458   1.372       .  S
O456        H460   0.992       .  S
O458        H459   0.992       .  S
C461        C462   1.389       .  A
C461        C466   1.415       .  A
C462        C463   1.374       .  A
C462        H467   1.085       .  S
C463        C464   1.414       .  A
C463        O468   1.369       .  S
C464        C465   1.407       .  A
C465        C466   1.417       .  A
C465        H469   1.083       .  S
C466        O470   1.370       .  S
O468        H472   0.991       .  S
O470        H471   0.992       .  S
C473        C474   1.404       .  A
C473        C478   1.415       .  A
C474        C475   1.391       .  A
C474        H479   1.083       .  S
C475        C476   1.409       .  A
C475        O480   1.373       .  S
C476        C477   1.402       .  A
C477        C478   1.403       .  A
C477        H481   1.084   1_556  S
C478        O482   1.372   1_556  S
O480        H484   0.992       .  S
O482        H483   0.992       .  S
C485        C486   1.394       .  A
C485        C490   1.408       .  A
C486        C487   1.391       .  A
C486        H491   1.084       .  S
C487        C488   1.414   1_455  A
C487       O1724   1.372   1_455  S
C488       C1299   1.457       .  S
C488        C489   1.398   1_655  A
C489        C490   1.389       .  A
C489        H493   1.084   1_456  S
C490        O494   1.373       .  S
O492       C1719   1.371       .  S
O492        H496   0.991       .  S
O494        H495   0.992   1_556  S
C497        C498   1.396       .  A
C497        C502   1.407       .  A
C498        C499   1.392       .  A
C498        H503   1.084       .  S
C499        C500   1.411       .  A
C499        O504   1.373       .  S
C500        C501   1.404       .  A
C501        C502   1.400       .  A
C501        H505   1.084       .  S
C502        O506   1.372       .  S
O504        H508   0.992       .  S
O506        H507   0.992       .  S
C509        C510   1.406       .  A
C509        C514   1.407       .  A
C510        C511   1.398       .  A
C510        H515   1.083       .  S
C511        C512   1.408       .  A
C511        O516   1.372       .  S
C512        C513   1.406       .  A
C513        C514   1.396       .  A
C513        H517   1.084       .  S
C514        O518   1.370       .  S
O516        H520   0.992       .  S
O518        H519   0.992       .  S
C521        C522   1.408       .  A
C521        C526   1.406       .  A
C522        C523   1.395       .  A
C522        H527   1.084       .  S
C523        C524   1.403       .  A
C523        O528   1.375       .  S
C524        C525   1.410       .  A
C525        C526   1.405       .  A
C525        H529   1.084       .  S
C526        O530   1.371       .  S
O528        H532   0.992       .  S
O530        H531   0.992       .  S
C533        C534   1.402       .  A
C533        C538   1.408       .  A
C534        C535   1.393       .  A
C534        H539   1.084       .  S
C535        C536   1.410       .  A
C535        O540   1.372       .  S
C536        C537   1.405       .  A
C537        C538   1.402       .  A
C537        H541   1.083       .  S
C538        O542   1.372       .  S
O540        H544   0.992       .  S
O542        H543   0.992       .  S
C545        C546   1.400       .  A
C545        C550   1.406       .  A
C546        C547   1.398       .  A
C546        H551   1.084       .  S
C547        C548   1.409       .  A
C547        O552   1.373       .  S
C548        C549   1.403       .  A
C549        C550   1.405       .  A
C549        H553   1.084       .  S
C550        O554   1.372       .  S
O552        H556   0.992       .  S
O554        H555   0.991       .  S
C557        C558   1.407       .  A
C557        C562   1.408       .  A
C558        C559   1.408       .  A
C558        H563   1.084       .  S
C559        C560   1.412       .  A
C559        O564   1.372       .  S
C560        C561   1.406       .  A
C561        C562   1.398       .  A
C561        H565   1.084       .  S
C562        O566   1.373       .  S
O564        H568   0.992       .  S
O566        H567   0.992       .  S
C569        C570   1.401       .  A
C569        C574   1.408       .  A
C570        C571   1.394       .  A
C570        H575   1.084       .  S
C571        C572   1.404       .  A
C571        O576   1.372       .  S
C572        C573   1.395       .  A
C573        C574   1.391       .  A
C573        H577   1.084       .  S
C574        O578   1.372       .  S
O576        H580   0.992       .  S
O578        H579   0.992       .  S
C581        C582   1.399       .  A
C581        C586   1.409       .  A
C582        C583   1.401       .  A
C582        H587   1.084       .  S
C583        C584   1.410       .  A
C583       O1820   1.372       .  S
C584       C1328   1.456   1_455  S
C584        C585   1.393       .  A
C585        C586   1.387       .  A
C585        H589   1.084       .  S
C586        O590   1.371       .  S
O588       C1815   1.372       .  S
O588       H1824   0.992       .  S
O590        H591   0.992       .  S
H592       O1820   0.992       .  S
C593        C594   1.399       .  A
C593        C598   1.407       .  A
C594        C595   1.393       .  A
C594        H599   1.084       .  S
C595        C596   1.409       .  A
C595        O600   1.372       .  S
C596        C597   1.406       .  A
C597        C598   1.405       .  A
C597        H601   1.084       .  S
C598        O602   1.372       .  S
O600        H604   0.992       .  S
O602        H603   0.991       .  S
C605        C606   1.407       .  A
C605        C610   1.417       .  A
C606        C607   1.403       .  A
C606        H611   1.083       .  S
C607        C608   1.407       .  A
C607        O612   1.372       .  S
C608        C609   1.399       .  A
C609        C610   1.400       .  A
C609        H613   1.084       .  S
C610        O614   1.372       .  S
O612        H616   0.992       .  S
O614        H615   0.992       .  S
O617        C625   1.299       .  A
O617       Co637   2.092       .  S
O618        C626   1.293       .  A
O618       Co638   2.068       .  S
O619        C627   1.265       .  A
O619       Co639   1.951       .  S
O620        C628   1.262       .  A
O620       Co640   1.963       .  S
O621        C627   1.276       .  A
O621       Co638   2.023       .  S
O622        C628   1.268       .  A
O622       Co637   1.995       .  S
O623        C626   1.275       .  A
O623       Co640   1.903       .  S
O624        C625   1.274       .  A
O624       Co639   1.891       .  S
C625       C1221   1.488       .  S
C626       C1209   1.463       .  S
C627       C1149   1.471       .  S
C628       C1197   1.457       .  S
O629        C642   1.256       .  A
O629       Co637   1.947       .  S
O630        C643   1.258       .  A
O630       Co638   1.967       .  S
O631        C644   1.258       .  A
O631       Co639   2.000       .  S
O632        C645   1.259       .  A
O632       Co640   2.015       .  S
O633        C645   1.258       .  A
O633       Co638   1.966       .  S
O634        C644   1.249       .  A
O634       Co637   1.934       .  S
O635        C642   1.273       .  A
O635       Co640   2.032       .  S
O636        C643   1.270       .  A
O636       Co639   2.034       .  S
Co637       O641   2.069       .  S
Co638       O641   2.066       .  S
Co639       O641   1.979       .  S
Co640       O641   1.978       .  S
C642       C1137   1.480       .  S
C643       C1176   1.486       .  S
C644       C1185   1.456       .  S
C645       C1161   1.469       .  S
O646        C654   1.294       .  A
O646       Co666   2.075   1_554  S
O647        C655   1.248       .  A
O647       Co667   1.965       .  S
O648        C656   1.250       .  A
O648       Co668   1.977       .  S
O649        C657   1.274       .  A
O649       Co669   1.887       .  S
O650        C656   1.261       .  A
O650       Co667   2.013       .  S
O651        C657   1.299       .  A
O651       Co666   2.075       .  S
O652        C655   1.241       .  A
O652       Co669   2.005       .  S
O653        C654   1.264       .  A
O653       Co668   1.893   1_554  S
C654       C1152   1.475       .  S
C655       C1077   1.475       .  S
C656       C1065   1.483       .  S
C657       C1089   1.481       .  S
O658        C671   1.259       .  A
O658       Co666   2.015       .  S
O659        C672   1.258       .  A
O659       Co667   1.946       .  S
O660        C673   1.244       .  A
O660       Co668   1.921       .  S
O661        C674   1.293       .  A
O661       Co669   2.035       .  S
O662        C674   1.272       .  A
O662       Co667   2.003       .  S
O663        C673   1.264       .  A
O663       Co666   2.001       .  S
O664        C671   1.263       .  A
O664       Co669   1.977       .  S
O665        C672   1.271       .  A
O665       Co668   2.019       .  S
Co666       O670   2.195       .  S
Co667       O670   2.052       .  S
Co668       O670   1.927       .  S
Co669       O670   1.933       .  S
C671       C1125   1.477       .  S
C672       C1116   1.468       .  S
C673       C1101   1.449       .  S
C674       C1140   1.475       .  S
O675        C683   1.280       .  A
O675       Co695   2.055       .  S
O676        C684   1.267   1_554  A
O676       Co696   2.009       .  S
O677        C685   1.267       .  A
O677       Co697   1.960       .  S
O678        C686   1.260       .  A
O678       Co698   1.984       .  S
O679        C685   1.291       .  A
O679       Co696   2.065       .  S
O680        C686   1.265       .  A
O680       Co695   2.016       .  S
O681        C684   1.256       .  A
O681       Co698   1.952       .  S
O682        C683   1.264   1_554  A
O682       Co697   1.899       .  S
C683       C2336   1.457       .  S
C684       C1092   1.471       .  S
C685       C1044   1.493       .  S
C686        C993   1.474       .  S
O687        C700   1.260       .  A
O687       Co695   1.968       .  S
O688        C701   1.251       .  A
O688       Co696   1.964       .  S
O689       C1934   1.296       .  A
O689       Co697   2.106       .  S
O690        C703   1.276   1_556  A
O690       Co698   2.035       .  S
O691        C703   1.263       .  A
O691       Co696   1.958       .  S
O692       C1934   1.263   1_556  A
O692       Co695   1.915       .  S
O693        C700   1.270       .  A
O693       Co698   2.029       .  S
O694        C701   1.254       .  A
O694       Co697   2.016       .  S
Co695       O699   1.993       .  S
Co696       O699   2.024   1_554  S
Co697       O699   2.030   1_554  S
Co698       O699   2.054       .  S
C701       C1005   1.480       .  S
C702       O1921   1.298       .  A
C702       O1924   1.264   1_554  A
C702       C1017   1.477   1_655  S
O704        C712   1.271       .  A
O704       Co724   1.865       .  S
O705        C713   1.259       .  A
O705       Co725   1.967       .  S
O706        C714   1.277       .  A
O706       Co726   1.872       .  S
O707        C715   1.245       .  A
O707       Co727   1.948       .  S
O708        C714   1.312       .  A
O708       Co725   2.122       .  S
O709        C715   1.257       .  A
O709       Co724   2.019       .  S
O710        C713   1.263       .  A
O710       Co727   1.988       .  S
O711        C712   1.303       .  A
O711       Co726   2.092       .  S
C712       C2432   1.456       .  S
C713       C1188   1.446       .  S
C714        C972   1.486       .  S
C715       C1008   1.489       .  S
O716        C729   1.303       .  A
O716       Co724   2.089       .  S
O717        C730   1.256       .  A
O717       Co725   1.948       .  S
O718        C731   1.295       .  A
O718       Co726   2.069       .  S
O719        C732   1.264       .  A
O719       Co727   1.928       .  S
O720        C732   1.290       .  A
O720       Co725   2.062       .  S
O721        C731   1.261       .  A
O721       Co724   1.942       .  S
O722        C729   1.273       .  A
O722       Co727   1.878       .  S
O723        C730   1.292       .  A
O723       Co726   2.078       .  S
Co724       O728   1.950       .  S
Co725       O728   2.016       .  S
Co726       O728   1.920       .  S
Co727       O728   1.887       .  S
C730        C996   1.482       .  S
C731        C945   1.464       .  S
O733        C741   1.271       .  A
O733       Co753   1.952       .  S
O734        C742   1.265       .  A
O734       Co754   1.985       .  S
O735        C743   1.268   1_554  A
O735       Co755   2.038       .  S
O736        C744   1.282       .  A
O736       Co756   2.083       .  S
O737        C743   1.253   1_554  A
O737       Co754   1.963       .  S
O738        C744   1.252       .  A
O738       Co753   1.971       .  S
O739        C742   1.267       .  A
O739       Co756   1.988       .  S
O740        C741   1.278       .  A
O740       Co755   2.041       .  S
C741       C1068   1.476       .  S
C742       C1056   1.476       .  S
C743        C900   1.486       .  S
C744        C936   1.500       .  S
O745        C758   1.272       .  A
O745       Co753   2.041       .  S
O746        C759   1.280       .  A
O746       Co754   2.075       .  S
O747        C760   1.265       .  A
O747       Co755   1.947       .  S
O748        C761   1.274       .  A
O748       Co756   2.019       .  S
O749        C761   1.272       .  A
O749       Co754   2.008       .  S
O750        C760   1.284       .  A
O750       Co753   2.065       .  S
O751        C758   1.256       .  A
O751       Co756   1.964       .  S
O752        C759   1.248       .  A
O752       Co755   1.951       .  S
Co753       O757   2.066       .  S
Co754       O757   2.077       .  S
Co755       O757   2.038       .  S
Co756       O757   2.070       .  S
C758        C909   1.483       .  S
C759       C1041   1.499       .  S
C760       C1173   1.482       .  S
C761        C921   1.525       .  S
O762        C770   1.271       .  A
O762       Co782   1.956       .  S
O763        C771   1.271       .  A
O763       Co783   1.999       .  S
O764        C772   1.278       .  A
O764       Co784   2.045       .  S
O765        C773   1.268       .  A
O765       Co785   2.053       .  S
O766        C772   1.263       .  A
O766       Co783   1.963       .  S
O767        C773   1.248       .  A
O767       Co782   1.975       .  S
O768        C771   1.257       .  A
O768       Co785   1.955       .  S
O769        C770   1.276       .  A
O769       Co784   2.034       .  S
C770       C1164   1.468       .  S
C771        C981   1.473       .  S
C772        C912   1.498       .  S
C773        C888   1.485       .  S
O774        C787   1.274       .  A
O774       Co782   2.036       .  S
O775        C788   1.269       .  A
O775       Co783   2.045       .  S
O776        C789   1.275       .  A
O776       Co784   1.979       .  S
O777        C790   1.270       .  A
O777       Co785   2.002       .  S
O778        C790   1.260       .  A
O778       Co783   1.962       .  S
O779        C789   1.273       .  A
O779       Co782   2.025       .  S
O780        C787   1.259       .  A
O780       Co785   1.968       .  S
O781        C788   1.247       .  A
O781       Co784   1.969       .  S
Co782       O786   2.018       .  S
Co783       O786   2.067       .  S
Co784       O786   2.051       .  S
Co785       O786   2.085       .  S
C787        C897   1.476       .  S
C788        C969   1.493       .  S
C789       C1080   1.482       .  S
C790        C876   1.485       .  S
O791        C799   1.274       .  A
O792        C800   1.258       .  A
O792       Co812   2.017       .  S
O793        C801   1.272       .  A
O793       Co813   1.901       .  S
O794        C802   1.261       .  A
O794       Co814   1.947       .  S
O795        C801   1.311       .  A
O795       Co812   2.150       .  S
O796        C802   1.276       .  A
O796       Co811   2.030       .  S
O797        C800   1.246       .  A
O797       Co814   1.956       .  S
O798       Co813   1.972       .  S
C799       C1224   1.472   1_545  S
C800       C1212   1.473       .  S
C801        C933   1.513       .  S
C802        C852   1.465       .  S
O803        C816   1.253   1_455  A
O803       Co811   1.958       .  S
O804        C817   1.267       .  A
O804       Co812   1.908       .  S
O805        C818   1.274       .  A
O806        C819   1.287       .  A
O806       Co814   2.053       .  S
O807        C819   1.278       .  A
O807       Co812   2.000       .  S
O808        C818   1.255       .  A
O809        C816   1.266   1_455  A
O809       Co814   2.017       .  S
O810        C817   1.287       .  A
O810       Co813   2.074       .  S
Co811       O815   2.012       .  S
Co812       O815   2.018       .  S
Co813       O815   2.006       .  S
Co814       O815   2.020       .  S
C816       C2192   1.479       .  S
C817        C864   1.456       .  S
C818       C1020   1.473   1_545  S
C819       C2156   1.515   1_455  S
O820        C828   1.296       .  A
O821        C829   1.262       .  A
O821       Co841   1.973       .  S
O822        C830   1.257       .  A
O822       Co842   1.981       .  S
O823        C831   1.288       .  A
O823       Co843   2.038       .  S
O824        C830   1.273       .  A
O824       Co841   2.034       .  S
O825        C831   1.278       .  A
O825       Co840   1.913       .  S
O826        C829   1.257       .  A
O826       Co843   1.964       .  S
O827        C828   1.272       .  A
C828       C1128   1.475   1_545  S
C829       C1113   1.457       .  S
C830        C885   1.478       .  S
C831        C861   1.456       .  S
O832       C2077   1.281       .  A
O832       Co840   2.050       .  S
O833        C846   1.269       .  A
O833       Co841   1.983       .  S
O834        C847   1.256   1_545  A
O835        C848   1.261       .  A
O835       Co843   1.965       .  S
O836        C848   1.276       .  A
O836       Co841   2.024       .  S
O837        C847   1.261       .  A
O838       C2077   1.267       .  A
O838       Co843   1.954       .  S
O839        C846   1.266       .  A
O839       Co842   1.983       .  S
Co840       O844   2.090       .  S
Co841       O844   2.031       .  S
Co842       O844   1.898       .  S
Co843       O844   1.993       .  S
C845       O2064   1.281       .  A
C845       O2070   1.266       .  A
C845       C1032   1.478       .  S
C846        C849   1.458       .  S
C847        C948   1.462       .  S
C848       C2105   1.486   1_455  S
C849        C850   1.398       .  A
C849        C854   1.406       .  A
C850        C851   1.394       .  A
C850        H855   1.084       .  S
C851        C852   1.410       .  A
C851        O856   1.372       .  S
C852        C853   1.401       .  A
C853        C854   1.397       .  A
C853        H857   1.083       .  S
C854        O858   1.372       .  S
O856        H860   0.991       .  S
O858        H859   0.992       .  S
C861        C862   1.399       .  A
C861        C866   1.406       .  A
C862        C863   1.395   1_556  A
C862        H867   1.084       .  S
C863        C864   1.401       .  A
C863        O868   1.372       .  S
C864        C865   1.402       .  A
C865        C866   1.400   1_554  A
C865        H869   1.084       .  S
C866        O870   1.371       .  S
O868       H2104   0.992       .  S
O870        H871   0.992       .  S
H872       O2100   0.992       .  S
C873       C2080   1.486       .  S
C873        C874   1.405       .  A
C873        C878   1.414       .  A
C874        C875   1.405       .  A
C874        H879   1.083       .  S
C875        C876   1.414       .  A
C875        O880   1.372       .  S
C876        C877   1.403       .  A
C877        C878   1.396       .  A
C877        H881   1.084       .  S
C878        O882   1.372       .  S
O880        H884   0.992       .  S
O882        H883   0.992       .  S
C885        C886   1.398       .  A
C885        C890   1.410       .  A
C886        C887   1.405       .  A
C886        H891   1.084       .  S
C887        C888   1.415       .  A
C887        O892   1.371       .  S
C888        C889   1.403       .  A
C889        C890   1.407       .  A
C889        H893   1.084       .  S
C890        O894   1.371       .  S
O892        H896   0.992       .  S
O894        H895   0.992       .  S
C897        C898   1.407       .  A
C897        C902   1.402       .  A
C898        C899   1.410       .  A
C898        H903   1.084       .  S
C899        C900   1.409       .  A
C899        O904   1.371       .  S
C900        C901   1.408       .  A
C901        C902   1.398       .  A
C901        H905   1.084       .  S
C902        O906   1.372       .  S
O904        H908   0.992       .  S
O906        H907   0.991       .  S
C909        C910   1.408       .  A
C909        C914   1.406       .  A
C910        C911   1.418       .  A
C910        H915   1.083       .  S
C911        C912   1.415       .  A
C911        O916   1.371       .  S
C912        C913   1.408       .  A
C913        C914   1.393       .  A
C913        H917   1.083       .  S
C914        O918   1.374       .  S
O916        H920   0.991       .  S
O918        H919   0.992       .  S
C921        C922   1.413       .  A
C921        C926   1.420       .  A
C922        C923   1.415       .  A
C922        H927   1.083       .  S
C923        C924   1.414       .  A
C923        O928   1.371       .  S
C924       C2051   1.517       .  S
C924        C925   1.411       .  A
C925        C926   1.418       .  A
C925        H929   1.083       .  S
C926        O930   1.371       .  S
O928        H932   0.991       .  S
O930        H931   0.992       .  S
C933        C934   1.414       .  A
C933        C938   1.414       .  A
C934        C935   1.414       .  A
C934        H939   1.083       .  S
C935        C936   1.409       .  A
C935        O940   1.371       .  S
C936        C937   1.409       .  A
C937        C938   1.414       .  A
C937        H941   1.083       .  S
C938        O942   1.370       .  S
O940        H944   0.992       .  S
O942        H943   0.992       .  S
C945        C946   1.400       .  A
C945       C2182   1.405       .  A
C946       C2179   1.399       .  A
C946        H951   1.081       .  S
C947       C2178   1.398       .  A
C947        C948   1.406   1_655  A
C947       O2184   1.372       .  S
C948        C949   1.402       .  A
C949        C950   1.398       .  A
C949        H953   1.084       .  S
C950       C2177   1.405   1_455  A
C950        O954   1.371       .  S
O952       C2179   1.372       .  S
O952        H956   0.992       .  S
O954        H955   0.992       .  S
C957        C958   1.401       .  A
C958        C959   1.400       .  A
C958        H963   1.084       .  S
C959        C960   1.410       .  A
C959        O964   1.373       .  S
C960       C2048   1.479       .  S
C961        C962   1.396       .  A
C961        H965   1.084       .  S
C962        O966   1.373   1_545  S
O964        H968   0.991       .  S
O966        H967   0.992       .  S
C969        C970   1.406       .  A
C969        C974   1.418       .  A
C970        C971   1.408       .  A
C970        H975   1.083       .  S
C971        C972   1.413       .  A
C971        O976   1.371       .  S
C972        C973   1.399       .  A
C973        C974   1.398       .  A
C973        H977   1.084       .  S
C974        O978   1.370       .  S
O976        H980   0.992       .  S
O978        H979   0.992       .  S
C981        C982   1.399       .  A
C981        C986   1.412       .  A
C982        C983   1.390       .  A
C982        H987   1.084       .  S
C983        C984   1.414       .  A
C983        O988   1.373       .  S
C984        C985   1.405       .  A
C985        C986   1.405       .  A
C986        O990   1.371       .  S
O988        H992   0.992       .  S
O990        H991   0.992       .  S
C993        C994   1.405       .  A
C993        C998   1.404       .  A
C994        C995   1.410       .  A
C994        H999   1.083       .  S
C995        C996   1.410       .  A
C995       O1000   1.371       .  S
C996        C997   1.405       .  A
C997        C998   1.396       .  A
C997       H1001   1.084       .  S
C998       O1002   1.372       .  S
O1000      H1004   0.992       .  S
O1002      H1003   0.992       .  S
C1005      C1006   1.399       .  A
C1005      C1010   1.409       .  A
C1006      C1007   1.393       .  A
C1006      H1011   1.084       .  S
C1007      C1008   1.416       .  A
C1007      O1012   1.373       .  S
C1008      C1009   1.410       .  A
C1009      C1010   1.411       .  A
C1009      H1013   1.083       .  S
C1010      O1014   1.371       .  S
O1012      H1016   0.991       .  S
O1014      H1015   0.992       .  S
C1017      C1018   1.408       .  A
C1017      C2254   1.404       .  A
C1018      C1019   1.414       .  A
C1018      H1023   1.083       .  S
C1019      C1020   1.410       .  A
C1019      O1024   1.371       .  S
C1020      C1021   1.396       .  A
C1021      C2254   1.390       .  A
C1022      C2249   1.399       .  A
C1022      C2253   1.380       .  A
C1022      O1026   1.368       .  S
O1024      H1028   0.992       .  S
C1029      C1034   1.410       .  A
C1030      C1031   1.377   1_565  A
C1030      H1035   1.071       .  S
C1031      O2268   1.373   1_545  S
C1032      C1033   1.412       .  A
C1033      C1034   1.418       .  A
C1033      H1037   1.083       .  S
C1034      O1038   1.371       .  S
O1036      C2263   1.373   1_465  S
O1036      H1040   0.992       .  S
O1038      H1039   0.992       .  S
C1041      C1042   1.407       .  A
C1041      C1046   1.418       .  A
C1042      C1043   1.410       .  A
C1042      H1047   1.083   1_554  S
C1043      C1044   1.416       .  A
C1043      O1048   1.371   1_554  S
C1044      C1045   1.401       .  A
C1045      C1046   1.404       .  A
C1045      H1049   1.084       .  S
C1046      O1050   1.372       .  S
O1048      H1052   0.992       .  S
O1050      H1051   0.991       .  S
C1053      C1054   1.407       .  A
C1053      C1058   1.413       .  A
C1054      C1055   1.410       .  A
C1055      C1056   1.409       .  A
C1055      O1060   1.371       .  S
C1056      C1057   1.399       .  A
C1057      C1058   1.398       .  A
C1057      H1061   1.084       .  S
C1058      O1062   1.373       .  S
O1060      H1064   0.992   1_554  S
O1062      H1063   0.992       .  S
C1065      C1066   1.409   1_556  A
C1065      C1070   1.408       .  A
C1066      C1067   1.402       .  A
C1066      H1071   1.082       .  S
C1067      C1068   1.407       .  A
C1067      O1072   1.371       .  S
C1068      C1069   1.407       .  A
C1069      C1070   1.398   1_554  A
C1069      H1073   1.084   1_554  S
C1070      O1074   1.372       .  S
O1072      H1076   0.992       .  S
O1074      H1075   0.992       .  S
C1077      C1078   1.389       .  A
C1077      C1082   1.415       .  A
C1078      C1079   1.374       .  A
C1078      H1083   1.085       .  S
C1079      C1080   1.414       .  A
C1079      O1084   1.369       .  S
C1080      C1081   1.407       .  A
C1081      C1082   1.417       .  A
C1081      H1085   1.083       .  S
C1082      O1086   1.370       .  S
O1084      H1088   0.991       .  S
O1086      H1087   0.992       .  S
C1089      C1090   1.404       .  A
C1089      C1094   1.415       .  A
C1090      C1091   1.391       .  A
C1090      H1095   1.083       .  S
C1091      C1092   1.409       .  A
C1091      O1096   1.373       .  S
C1092      C1093   1.402       .  A
C1093      C1094   1.403       .  A
C1093      H1097   1.084   1_556  S
C1094      O1098   1.372   1_556  S
O1096      H1100   0.992       .  S
O1098      H1099   0.992       .  S
C1101      C1102   1.394       .  A
C1101      C1106   1.408       .  A
C1102      C1103   1.391       .  A
C1102      H1107   1.084       .  S
C1103      C1104   1.414   1_455  A
C1103      O2340   1.372   1_455  S
C1104      C1915   1.457       .  S
C1104      C1105   1.398   1_655  A
C1105      C1106   1.389       .  A
C1105      H1109   1.084   1_456  S
C1106      O1110   1.373       .  S
O1108      C2335   1.371       .  S
O1108      H1112   0.991       .  S
O1110      H1111   0.992   1_556  S
C1113      C1114   1.396       .  A
C1113      C1118   1.407       .  A
C1114      C1115   1.392       .  A
C1114      H1119   1.084       .  S
C1115      C1116   1.411       .  A
C1115      O1120   1.373       .  S
C1116      C1117   1.404       .  A
C1117      C1118   1.400       .  A
C1117      H1121   1.084       .  S
C1118      O1122   1.372       .  S
O1120      H1124   0.992       .  S
O1122      H1123   0.992       .  S
C1125      C1126   1.406       .  A
C1125      C1130   1.407       .  A
C1126      C1127   1.398       .  A
C1126      H1131   1.083       .  S
C1127      C1128   1.408       .  A
C1127      O1132   1.372       .  S
C1128      C1129   1.406       .  A
C1129      C1130   1.396       .  A
C1129      H1133   1.084       .  S
C1130      O1134   1.370       .  S
O1132      H1136   0.992   1_565  S
O1134      H1135   0.992       .  S
C1137      C1138   1.408       .  A
C1137      C1142   1.406       .  A
C1138      C1139   1.395       .  A
C1138      H1143   1.084       .  S
C1139      C1140   1.403       .  A
C1139      O1144   1.375       .  S
C1140      C1141   1.410       .  A
C1141      C1142   1.405       .  A
C1141      H1145   1.084       .  S
C1142      O1146   1.371       .  S
O1144      H1148   0.992       .  S
O1146      H1147   0.992       .  S
C1149      C1150   1.402       .  A
C1149      C1154   1.408       .  A
C1150      C1151   1.393       .  A
C1150      H1155   1.084       .  S
C1151      C1152   1.410       .  A
C1151      O1156   1.372       .  S
C1152      C1153   1.405       .  A
C1153      C1154   1.402       .  A
C1153      H1157   1.083       .  S
C1154      O1158   1.372       .  S
O1156      H1160   0.992       .  S
O1158      H1159   0.992       .  S
C1161      C1162   1.400       .  A
C1161      C1166   1.406       .  A
C1162      C1163   1.398       .  A
C1162      H1167   1.084       .  S
C1163      C1164   1.409       .  A
C1163      O1168   1.373       .  S
C1164      C1165   1.403       .  A
C1165      C1166   1.405       .  A
C1165      H1169   1.084       .  S
C1166      O1170   1.372       .  S
O1168      H1172   0.992       .  S
O1170      H1171   0.991       .  S
C1173      C1174   1.407       .  A
C1173      C1178   1.408       .  A
C1174      C1175   1.408       .  A
C1174      H1179   1.084       .  S
C1175      C1176   1.412       .  A
C1175      O1180   1.372       .  S
C1176      C1177   1.406       .  A
C1177      C1178   1.398       .  A
C1177      H1181   1.084       .  S
C1178      O1182   1.373       .  S
O1180      H1184   0.992       .  S
O1182      H1183   0.992       .  S
C1185      C1186   1.401       .  A
C1185      C1190   1.408       .  A
C1186      C1187   1.394       .  A
C1186      H1191   1.084       .  S
C1187      C1188   1.404       .  A
C1187      O1192   1.372       .  S
C1188      C1189   1.395       .  A
C1189      C1190   1.391       .  A
C1189      H1193   1.084       .  S
C1190      O1194   1.372       .  S
O1192      H1196   0.992       .  S
O1194      H1195   0.992       .  S
C1197      C1198   1.399       .  A
C1197      C1202   1.409       .  A
C1198      C1199   1.401       .  A
C1198      H1203   1.084       .  S
C1199      C1200   1.410       .  A
C1199      O2436   1.372       .  S
C1200      C1944   1.456   1_455  S
C1200      C1201   1.393       .  A
C1201      C1202   1.387       .  A
C1201      H1205   1.084       .  S
C1202      O1206   1.371       .  S
O1204      C2431   1.372       .  S
O1204      H2440   0.992       .  S
O1206      H1207   0.992       .  S
H1208      O2436   0.992       .  S
C1209      C1210   1.399       .  A
C1209      C1214   1.407       .  A
C1210      C1211   1.393       .  A
C1210      H1215   1.084       .  S
C1211      C1212   1.409       .  A
C1211      O1216   1.372       .  S
C1212      C1213   1.406       .  A
C1213      C1214   1.405       .  A
C1213      H1217   1.084       .  S
C1214      O1218   1.372       .  S
O1216      H1220   0.992       .  S
O1218      H1219   0.991       .  S
C1221      C1222   1.407       .  A
C1221      C1226   1.417       .  A
C1222      C1223   1.403       .  A
C1222      H1227   1.083       .  S
C1223      C1224   1.407       .  A
C1223      O1228   1.372       .  S
C1224      C1225   1.399       .  A
C1225      C1226   1.400       .  A
C1225      H1229   1.084       .  S
C1226      O1230   1.372       .  S
O1228      H1232   0.992   1_565  S
O1230      H1231   0.992       .  S
O1233      C1241   1.299       .  A
O1233     Co1253   2.092       .  S
O1234      C1242   1.293       .  A
O1234     Co1254   2.066       .  S
O1235      C1243   1.265       .  A
O1235     Co1255   1.951       .  S
O1236      C1244   1.262       .  A
O1236     Co1256   1.963       .  S
O1237      C1243   1.276       .  A
O1237     Co1254   2.022       .  S
O1238      C1244   1.268       .  A
O1238     Co1253   1.995       .  S
O1239      C1242   1.275       .  A
O1239     Co1256   1.902       .  S
O1240      C1241   1.274       .  A
O1240     Co1255   1.890       .  S
C1241      C1837   1.489       .  S
C1242      C1825   1.461       .  S
C1243      C1765   1.471       .  S
C1244      C1813   1.457       .  S
O1245      C1258   1.256       .  A
O1245     Co1253   1.947       .  S
O1246      C1259   1.258       .  A
O1246     Co1254   1.967       .  S
O1247      C1260   1.258       .  A
O1247     Co1255   2.000       .  S
O1248      C1261   1.259       .  A
O1248     Co1256   2.015       .  S
O1249      C1261   1.258       .  A
O1249     Co1254   1.966       .  S
O1250      C1260   1.249       .  A
O1250     Co1253   1.932       .  S
O1251      C1258   1.273       .  A
O1251     Co1256   2.032       .  S
O1252      C1259   1.269       .  A
O1252     Co1255   2.034       .  S
Co1253     O1257   2.069       .  S
Co1254     O1257   2.066       .  S
Co1255     O1257   1.979       .  S
Co1256     O1257   1.978       .  S
C1258      C1753   1.481       .  S
C1259      C1792   1.486       .  S
C1260      C1801   1.455       .  S
C1261      C1777   1.469       .  S
O1262      C1270   1.294       .  A
O1262     Co1282   2.075   1_554  S
O1263      C1271   1.249       .  A
O1263     Co1283   1.965       .  S
O1264      C1272   1.251       .  A
O1264     Co1284   1.976       .  S
O1265      C1273   1.274       .  A
O1265     Co1285   1.888       .  S
O1266      C1272   1.261       .  A
O1266     Co1283   2.014       .  S
O1267      C1273   1.299       .  A
O1267     Co1282   2.077       .  S
O1268      C1271   1.241       .  A
O1268     Co1285   2.004       .  S
O1269      C1270   1.264       .  A
O1269     Co1284   1.892   1_554  S
C1270      C1768   1.475       .  S
C1271      C1693   1.475       .  S
C1272      C1681   1.483       .  S
C1273      C1705   1.482       .  S
O1274      C1287   1.259       .  A
O1274     Co1282   2.015       .  S
O1275      C1288   1.258       .  A
O1275     Co1283   1.947       .  S
O1276      C1289   1.244       .  A
O1276     Co1284   1.920       .  S
O1277      C1290   1.294       .  A
O1277     Co1285   2.036       .  S
O1278      C1290   1.271       .  A
O1278     Co1283   2.002       .  S
O1279      C1289   1.264       .  A
O1279     Co1282   2.002       .  S
O1280      C1287   1.262       .  A
O1280     Co1285   1.977       .  S
O1281      C1288   1.271       .  A
O1281     Co1284   2.019       .  S
Co1282     O1286   2.196       .  S
Co1283     O1286   2.053       .  S
Co1284     O1286   1.926       .  S
Co1285     O1286   1.934       .  S
C1287      C1741   1.477       .  S
C1288      C1732   1.469       .  S
C1289      C1717   1.449       .  S
C1290      C1756   1.475       .  S
O1291      C1299   1.281       .  A
O1291     Co1311   2.060       .  S
O1292      C1300   1.267   1_554  A
O1292     Co1312   2.013       .  S
O1293      C1301   1.267       .  A
O1293     Co1313   1.960       .  S
O1294      C1302   1.259       .  A
O1294     Co1314   1.985       .  S
O1295      C1301   1.291       .  A
O1295     Co1312   2.062       .  S
O1296      C1302   1.264       .  A
O1296     Co1311   2.018       .  S
O1297      C1300   1.255       .  A
O1297     Co1314   1.952       .  S
O1298      C1299   1.264   1_554  A
O1298     Co1313   1.895       .  S
C1300      C1708   1.472       .  S
C1301      C1660   1.493       .  S
C1302      C1609   1.476       .  S
O1303      C1316   1.262       .  A
O1303     Co1311   1.973       .  S
O1304      C1317   1.251       .  A
O1304     Co1312   1.965       .  S
O1305     Co1313   2.113       .  S
O1306      C1319   1.276   1_556  A
O1306     Co1314   2.032       .  S
O1307      C1319   1.263       .  A
O1307     Co1312   1.958       .  S
O1308     Co1311   1.903       .  S
O1309      C1316   1.272       .  A
O1309     Co1314   2.030       .  S
O1310      C1317   1.254       .  A
O1310     Co1313   2.015       .  S
Co1311     O1315   1.989       .  S
Co1312     O1315   2.024   1_554  S
Co1313     O1315   2.030   1_554  S
Co1314     O1315   2.052       .  S
C1316      C2261   1.475       .  S
C1317      C1621   1.480       .  S
C1318      C1633   1.474       .  S
C1319      C2285   1.483       .  S
O1320      C1328   1.271       .  A
O1320     Co1340   1.865       .  S
O1321      C1329   1.259       .  A
O1321     Co1341   1.968       .  S
O1322      C1330   1.277       .  A
O1322     Co1342   1.872       .  S
O1323      C1331   1.245       .  A
O1323     Co1343   1.947       .  S
O1324      C1330   1.312       .  A
O1324     Co1341   2.122       .  S
O1325      C1331   1.257       .  A
O1325     Co1340   2.019       .  S
O1326      C1329   1.262       .  A
O1326     Co1343   1.986       .  S
O1327      C1328   1.303       .  A
O1327     Co1342   2.093       .  S
C1329      C1804   1.445       .  S
C1330      C1588   1.485       .  S
C1331      C1624   1.488       .  S
O1332      C1345   1.303       .  A
O1332     Co1340   2.088       .  S
O1333      C1346   1.256       .  A
O1333     Co1341   1.949       .  S
O1334      C1347   1.295       .  A
O1334     Co1342   2.067       .  S
O1335      C1348   1.264       .  A
O1335     Co1343   1.928       .  S
O1336      C1348   1.290       .  A
O1336     Co1341   2.062       .  S
O1337      C1347   1.261       .  A
O1337     Co1340   1.941       .  S
O1338      C1345   1.273       .  A
O1338     Co1343   1.878       .  S
O1339      C1346   1.292       .  A
O1339     Co1342   2.081       .  S
Co1340     O1344   1.950       .  S
Co1341     O1344   2.015       .  S
Co1342     O1344   1.919       .  S
Co1343     O1344   1.886       .  S
C1345      C2189   1.460       .  S
C1346      C1612   1.483       .  S
C1347      C1561   1.462       .  S
C1348      C2216   1.479       .  S
O1349      C1357   1.272       .  A
O1349     Co1369   1.953       .  S
O1350      C1358   1.265       .  A
O1350     Co1370   1.984       .  S
O1351      C1359   1.269   1_554  A
O1351     Co1371   2.038       .  S
O1352      C1360   1.279       .  A
O1352     Co1372   2.078       .  S
O1353      C1359   1.254   1_554  A
O1353     Co1370   1.963       .  S
O1354      C1360   1.252       .  A
O1354     Co1369   1.975       .  S
O1355      C1358   1.266       .  A
O1355     Co1372   1.983       .  S
O1356      C1357   1.278       .  A
O1356     Co1371   2.041       .  S
C1357      C1684   1.476       .  S
C1358      C1672   1.473       .  S
C1359      C1516   1.487       .  S
C1360      C1552   1.500       .  S
O1361      C1374   1.273       .  A
O1361     Co1369   2.041       .  S
O1362      C1375   1.277       .  A
O1362     Co1370   2.069       .  S
O1363      C1376   1.266       .  A
O1363     Co1371   1.948       .  S
O1364      C1377   1.274       .  A
O1364     Co1372   2.021       .  S
O1365      C1377   1.271       .  A
O1365     Co1370   2.002       .  S
O1366      C1376   1.284       .  A
O1366     Co1369   2.064       .  S
O1367      C1374   1.257       .  A
O1367     Co1372   1.963       .  S
O1368      C1375   1.247       .  A
O1368     Co1371   1.954       .  S
Co1369     O1373   2.066       .  S
Co1370     O1373   2.082       .  S
Co1371     O1373   2.040       .  S
Co1372     O1373   2.074       .  S
C1374      C1525   1.483       .  S
C1375      C1657   1.498       .  S
C1376      C1789   1.482       .  S
C1377      C1537   1.524       .  S
O1378      C1386   1.271       .  A
O1378     Co1398   1.956       .  S
O1379      C1387   1.271       .  A
O1379     Co1399   1.999       .  S
O1380      C1388   1.278       .  A
O1380     Co1400   2.046       .  S
O1381      C1389   1.268       .  A
O1381     Co1401   2.053       .  S
O1382      C1388   1.263       .  A
O1382     Co1399   1.962       .  S
O1383      C1389   1.248       .  A
O1383     Co1398   1.976       .  S
O1384      C1387   1.258       .  A
O1384     Co1401   1.956       .  S
O1385      C1386   1.276       .  A
O1385     Co1400   2.034       .  S
C1386      C1780   1.468       .  S
C1387      C1597   1.473       .  S
C1388      C1528   1.498       .  S
C1389      C1504   1.485       .  S
O1390      C1403   1.274       .  A
O1390     Co1398   2.036       .  S
O1391      C1404   1.269       .  A
O1391     Co1399   2.045       .  S
O1392      C1405   1.275       .  A
O1392     Co1400   1.980       .  S
O1393      C1406   1.271       .  A
O1393     Co1401   2.003       .  S
O1394      C1406   1.260       .  A
O1394     Co1399   1.961       .  S
O1395      C1405   1.273       .  A
O1395     Co1398   2.025       .  S
O1396      C1403   1.259       .  A
O1396     Co1401   1.968       .  S
O1397      C1404   1.247       .  A
O1397     Co1400   1.969       .  S
Co1398     O1402   2.019       .  S
Co1399     O1402   2.067       .  S
Co1400     O1402   2.051       .  S
Co1401     O1402   2.085       .  S
C1403      C1513   1.476       .  S
C1404      C1585   1.493       .  S
C1405      C1696   1.482       .  S
C1406      C1492   1.485       .  S
O1407      C1415   1.274       .  A
O1407     Co2043   2.017       .  S
O1408      C1416   1.258       .  A
O1408     Co1428   2.016       .  S
O1409      C1417   1.274       .  A
O1409     Co1429   1.903       .  S
O1410      C1418   1.262       .  A
O1410     Co1430   1.949       .  S
O1411      C1417   1.310       .  A
O1411     Co1428   2.144       .  S
O1412      C1418   1.275       .  A
O1412     Co1427   2.023       .  S
O1413      C1416   1.245       .  A
O1413     Co1430   1.953       .  S
O1414      C2031   1.264       .  A
O1414     Co1429   1.968       .  S
C1415      O2030   1.264       .  A
C1415      C1840   1.471       .  S
C1416      C1828   1.472       .  S
C1417      C1549   1.512       .  S
C1418      C1468   1.462       .  S
O1419      C1432   1.250       .  A
O1419     Co1427   1.956       .  S
O1420      C1433   1.267       .  A
O1420     Co1428   1.914       .  S
O1421      C1434   1.275       .  A
O1421     Co2045   2.057       .  S
O1422      C1435   1.288       .  A
O1422     Co1430   2.058       .  S
O1423      C1435   1.278       .  A
O1423     Co1428   1.998       .  S
O1424      C1434   1.252       .  A
O1424     Co2043   1.921       .  S
O1425      C1432   1.265       .  A
O1425     Co1430   2.019       .  S
O1426      C1433   1.284       .  A
O1426     Co1429   2.064       .  S
Co1427     O2023   2.017       .  S
Co1427     O2040   1.921       .  S
Co1427     O1431   2.000       .  S
Co1428     O1431   2.018       .  S
Co1429     O2037   2.057       .  S
Co1429     O1431   2.011       .  S
Co1430     O1431   2.020       .  S
C1433      C1480   1.457       .  S
C1434      C1636   1.481       .  S
O1436      C1444   1.296       .  A
O1436     Co2072   2.065       .  S
O1437      C1445   1.262       .  A
O1437     Co1457   1.972       .  S
O1438      C1446   1.257       .  A
O1438     Co1458   1.982       .  S
O1439      C1447   1.288       .  A
O1439     Co1459   2.037       .  S
O1440      C1446   1.274       .  A
O1440     Co1457   2.034       .  S
O1441      C1447   1.279       .  A
O1441     Co1456   1.909       .  S
O1442      C1445   1.257       .  A
O1442     Co1459   1.966       .  S
O1443      C1444   1.272       .  A
O1443     Co2074   1.890       .  S
C1444      C1744   1.475       .  S
C1445      C1729   1.459       .  S
C1446      C1501   1.478       .  S
C1447      C1477   1.456       .  S
O1448     Co1456   2.051       .  S
O1449      C1462   1.269       .  A
O1449     Co1457   1.982       .  S
O1450      C1463   1.256       .  A
O1450     Co2074   1.965       .  S
O1451      C1464   1.262       .  A
O1451     Co1459   1.966       .  S
O1452      C1464   1.277       .  A
O1452     Co1457   2.024       .  S
O1453      C1463   1.261       .  A
O1453     Co2072   1.993       .  S
O1454     Co1459   1.954       .  S
O1455      C1462   1.265       .  A
O1455     Co1458   1.980       .  S
Co1456     O2052   2.064       .  S
Co1456     O2069   1.993   1_545  S
Co1456     O1460   2.090       .  S
Co1457     O1460   2.031       .  S
Co1458     O2059   1.890       .  S
Co1458     O2066   1.965       .  S
Co1458     O1460   1.899       .  S
Co1459     O1460   1.992       .  S
C1461      C1648   1.477   1_455  S
C1462      C1465   1.456       .  S
C1463      C1564   1.463       .  S
C1465      C1466   1.398       .  A
C1465      C1470   1.405       .  A
C1466      C1467   1.394       .  A
C1466      H1471   1.084       .  S
C1467      C1468   1.409       .  A
C1467      O1472   1.372       .  S
C1468      C1469   1.401       .  A
C1469      C1470   1.395       .  A
C1469      H1473   1.083       .  S
C1470      O1474   1.372       .  S
O1472      H1476   0.992       .  S
O1474      H1475   0.992       .  S
C1477      C1478   1.397       .  A
C1477      C1482   1.409       .  A
C1478      C1479   1.392   1_556  A
C1478      H1483   1.084       .  S
C1479      C1480   1.404       .  A
C1479      O1484   1.370       .  S
C1480      C1481   1.401       .  A
C1481      C1482   1.400   1_554  A
C1481      H1485   1.084       .  S
C1482      O1486   1.371       .  S
O1486      H1487   0.992       .  S
C1489      C1490   1.405       .  A
C1489      C1494   1.415       .  A
C1490      C1491   1.405       .  A
C1490      H1495   1.083       .  S
C1491      C1492   1.414       .  A
C1491      O1496   1.372       .  S
C1492      C1493   1.403       .  A
C1493      C1494   1.396       .  A
C1493      H1497   1.084       .  S
C1494      O1498   1.372       .  S
O1496      H1500   0.992       .  S
O1498      H1499   0.992       .  S
C1501      C1502   1.397       .  A
C1501      C1506   1.411       .  A
C1502      C1503   1.406       .  A
C1502      H1507   1.084       .  S
C1503      C1504   1.415       .  A
C1503      O1508   1.371       .  S
C1504      C1505   1.403       .  A
C1505      C1506   1.407       .  A
C1505      H1509   1.084       .  S
C1506      O1510   1.371       .  S
O1508      H1512   0.992       .  S
O1510      H1511   0.992       .  S
C1513      C1514   1.407       .  A
C1513      C1518   1.403       .  A
C1514      C1515   1.409       .  A
C1514      H1519   1.084       .  S
C1515      C1516   1.410       .  A
C1515      O1520   1.371       .  S
C1516      C1517   1.408       .  A
C1517      C1518   1.398       .  A
C1517      H1521   1.084       .  S
C1518      O1522   1.372       .  S
O1520      H1524   0.992       .  S
O1522      H1523   0.991       .  S
C1525      C1526   1.407       .  A
C1525      C1530   1.406       .  A
C1526      C1527   1.417       .  A
C1526      H1531   1.083       .  S
C1527      C1528   1.415       .  A
C1527      O1532   1.371       .  S
C1528      C1529   1.408       .  A
C1529      C1530   1.393       .  A
C1529      H1533   1.083       .  S
C1530      O1534   1.374       .  S
O1532      H1536   0.991       .  S
O1534      H1535   0.992       .  S
C1537      C1538   1.413       .  A
C1537      C1542   1.419       .  A
C1538      C1539   1.415       .  A
C1538      H1543   1.083       .  S
C1539      C1540   1.412       .  A
C1539      O1544   1.371       .  S
C1540      C1541   1.411       .  A
C1541      C1542   1.418       .  A
C1541      H1545   1.083       .  S
C1542      O1546   1.371       .  S
O1544      H1548   0.990       .  S
O1546      H1547   0.992       .  S
C1549      C1550   1.413       .  A
C1549      C1554   1.414       .  A
C1550      C1551   1.414       .  A
C1550      H1555   1.083       .  S
C1551      C1552   1.410       .  A
C1551      O1556   1.371       .  S
C1552      C1553   1.408       .  A
C1553      C1554   1.413       .  A
C1553      H1557   1.083       .  S
C1554      O1558   1.370       .  S
O1556      H1560   0.992       .  S
O1558      H1559   0.992       .  S
C1561      C1562   1.400       .  A
C1562      H1567   1.081       .  S
C1563      C1564   1.406       .  A
C1564      C1565   1.402       .  A
C1565      C1566   1.398       .  A
C1565      H1569   1.084       .  S
C1566      O1570   1.371       .  S
O1568      H1572   0.992       .  S
O1570      H1571   0.992       .  S
C1573      C1961   1.460   1_545  S
C1573      C1574   1.400       .  A
C1573      C2194   1.401       .  A
C1574      C1575   1.400       .  A
C1574      H1579   1.084       .  S
C1575      C1576   1.411       .  A
C1575      O1580   1.373       .  S
C1576      C2193   1.409       .  A
C1577      C2192   1.409       .  A
C1577      C1578   1.396       .  A
C1577      H1581   1.084       .  S
C1578      C2189   1.401       .  A
C1578      O1582   1.373       .  S
O1580      H1584   0.991       .  S
O1582      H1583   0.992       .  S
C1585      C1586   1.406       .  A
C1585      C1590   1.418       .  A
C1586      C1587   1.408       .  A
C1586      H1591   1.083       .  S
C1587      C1588   1.413       .  A
C1587      O1592   1.371       .  S
C1588      C1589   1.399       .  A
C1589      C1590   1.397       .  A
C1589      H1593   1.084       .  S
C1590      O1594   1.370       .  S
O1592      H1596   0.992       .  S
O1594      H1595   0.992       .  S
C1597      C1598   1.399       .  A
C1597      C1602   1.412       .  A
C1598      C1599   1.390       .  A
C1598      H1603   1.084       .  S
C1599      C1600   1.414   1_545  A
C1599      O1604   1.373       .  S
C1600      C1964   1.479       .  S
C1600      C1601   1.405   1_565  A
C1601      C1602   1.405       .  A
C1601      H2221   1.083   1_545  S
C1602      O1606   1.371       .  S
O1604      H1608   0.992       .  S
H1605      C2217   1.083       .  S
O1606      H1607   0.992       .  S
C1609      C1610   1.406       .  A
C1609      C1614   1.404       .  A
C1610      C1611   1.410       .  A
C1610      H1615   1.083       .  S
C1611      C1612   1.410       .  A
C1611      O1616   1.371       .  S
C1612      C1613   1.406       .  A
C1613      C1614   1.396       .  A
C1613      H1617   1.084       .  S
C1614      O1618   1.372       .  S
O1616      H1620   0.992       .  S
O1618      H1619   0.992       .  S
C1621      C1622   1.399       .  A
C1621      C1626   1.409       .  A
C1622      C1623   1.393       .  A
C1622      H1627   1.084       .  S
C1623      C1624   1.416       .  A
C1623      O1628   1.373       .  S
C1624      C1625   1.410       .  A
C1625      C1626   1.410       .  A
C1625      H1629   1.083       .  S
C1626      O1630   1.371       .  S
O1628      H1632   0.991       .  S
O1630      H1631   0.992       .  S
C1633      C1634   1.411       .  A
C1634      C1635   1.417       .  A
C1634      H1639   1.083       .  S
C1635      C1636   1.410       .  A
C1635      O1640   1.371       .  S
C1636      C1637   1.403       .  A
C1637      H2257   1.083       .  S
C1638      O1642   1.371   1_455  S
O1640      H1644   0.992       .  S
H1641      C2253   1.083   1_545  S
O1642      H2259   0.992   1_554  S
H1643      O2258   0.992   1_546  S
C1645      C1932   1.475       .  S
C1645      C2262   1.393       .  A
C1645      C1650   1.410   1_565  A
C1646      C2261   1.393       .  A
C1646      C1647   1.375       .  A
C1646      H1651   1.070       .  S
C1647      C2264   1.406       .  A
C1648      C2263   1.406       .  A
C1648      C1649   1.412       .  A
C1649      C1650   1.418       .  A
C1649      H1653   1.083       .  S
C1650      O1654   1.370       .  S
O1652      H1656   0.992       .  S
O1654      H1655   0.992       .  S
C1657      C1658   1.406       .  A
C1657      C1662   1.417       .  A
C1658      C1659   1.409       .  A
C1658      H1663   1.083   1_554  S
C1659      C1660   1.416       .  A
C1659      O1664   1.371   1_554  S
C1660      C1661   1.401       .  A
C1661      C1662   1.404       .  A
C1661      H1665   1.084       .  S
C1662      O1666   1.372       .  S
O1664      H1668   0.992       .  S
O1666      H1667   0.991       .  S
C1669      C1935   1.483   1_545  S
C1669      C1670   1.407       .  A
C1669      C1674   1.412       .  A
C1670      C1671   1.409       .  A
C1670      H2291   1.083       .  S
C1671      C1672   1.408       .  A
C1671      O1676   1.371       .  S
C1672      C1673   1.398       .  A
C1673      C1674   1.397       .  A
C1673      H1677   1.084       .  S
C1674      O1678   1.373       .  S
H1675      C2286   1.083       .  S
O1676      H1680   0.992   1_554  S
O1678      H1679   0.992       .  S
C1681      C1682   1.409   1_556  A
C1681      C1686   1.408       .  A
C1682      C1683   1.402       .  A
C1682      H1687   1.082       .  S
C1683      C1684   1.407       .  A
C1683      O1688   1.371       .  S
C1684      C1685   1.408       .  A
C1685      C1686   1.398   1_554  A
C1685      H1689   1.084   1_554  S
C1686      O1690   1.372       .  S
O1688      H1692   0.992       .  S
O1690      H1691   0.992       .  S
C1693      C1694   1.389       .  A
C1693      C1698   1.415       .  A
C1694      C1695   1.374       .  A
C1694      H1699   1.084       .  S
C1695      C1696   1.414       .  A
C1695      O1700   1.369       .  S
C1696      C1697   1.407       .  A
C1697      C1698   1.417       .  A
C1697      H1701   1.083       .  S
C1698      O1702   1.370       .  S
O1700      H1704   0.992       .  S
O1702      H1703   0.992       .  S
C1705      C1706   1.404       .  A
C1705      C1710   1.415       .  A
C1706      C1707   1.392       .  A
C1706      H1711   1.083       .  S
C1707      C1708   1.409       .  A
C1707      O1712   1.373       .  S
C1708      C1709   1.402   1_556  A
C1709      C1710   1.404   1_554  A
C1709      H1713   1.084       .  S
C1710      O1714   1.372   1_556  S
O1712      H1716   0.992       .  S
O1714      H1715   0.992       .  S
C1717      C1718   1.394       .  A
C1717      C1722   1.408       .  A
C1718      C1719   1.391       .  A
C1718      H1723   1.084       .  S
C1719      C1720   1.414       .  A
C1720      C1721   1.398       .  A
C1721      C1722   1.389       .  A
C1721      H1725   1.084   1_556  S
C1722      O1726   1.373       .  S
O1724      H1728   0.992       .  S
O1726      H1727   0.992   1_556  S
C1729      C1730   1.396       .  A
C1729      C1734   1.406       .  A
C1730      C1731   1.392       .  A
C1730      H1735   1.084       .  S
C1731      C1732   1.411       .  A
C1731      O1736   1.373       .  S
C1732      C1733   1.404       .  A
C1733      C1734   1.400       .  A
C1733      H1737   1.084       .  S
C1734      O1738   1.371       .  S
O1736      H1740   0.992       .  S
O1738      H1739   0.991       .  S
C1741      C1742   1.406       .  A
C1741      C1746   1.407       .  A
C1742      C1743   1.398       .  A
C1742      H1747   1.083       .  S
C1743      C1744   1.408       .  A
C1743      O1748   1.372       .  S
C1744      C1745   1.405       .  A
C1745      C1746   1.396       .  A
C1745      H1749   1.084       .  S
C1746      O1750   1.370       .  S
O1748      H1752   0.992       .  S
O1750      H1751   0.992       .  S
C1753      C1754   1.409       .  A
C1753      C1758   1.406       .  A
C1754      C1755   1.395       .  A
C1754      H1759   1.084       .  S
C1755      C1756   1.403       .  A
C1755      O1760   1.375       .  S
C1756      C1757   1.410       .  A
C1757      C1758   1.406       .  A
C1757      H1761   1.084       .  S
C1758      O1762   1.371       .  S
O1760      H1764   0.992       .  S
O1762      H1763   0.992       .  S
C1765      C1766   1.402       .  A
C1765      C1770   1.408       .  A
C1766      C1767   1.394       .  A
C1766      H1771   1.084       .  S
C1767      C1768   1.410       .  A
C1767      O1772   1.372       .  S
C1768      C1769   1.405       .  A
C1769      C1770   1.402       .  A
C1769      H1773   1.083       .  S
C1770      O1774   1.372       .  S
O1772      H1776   0.992       .  S
O1774      H1775   0.992       .  S
C1777      C1778   1.400       .  A
C1777      C1782   1.406       .  A
C1778      C1779   1.398       .  A
C1778      H1783   1.084       .  S
C1779      C1780   1.409       .  A
C1779      O1784   1.373       .  S
C1780      C1781   1.403       .  A
C1781      C1782   1.405       .  A
C1781      H1785   1.084       .  S
C1782      O1786   1.372       .  S
O1784      H1788   0.992       .  S
O1786      H1787   0.991       .  S
C1789      C1790   1.407       .  A
C1789      C1794   1.408       .  A
C1790      C1791   1.408       .  A
C1790      H1795   1.084       .  S
C1791      C1792   1.412       .  A
C1791      O1796   1.372       .  S
C1792      C1793   1.406       .  A
C1793      C1794   1.398       .  A
C1793      H1797   1.084       .  S
C1794      O1798   1.373       .  S
O1796      H1800   0.992       .  S
O1798      H1799   0.992       .  S
C1801      C1802   1.400       .  A
C1801      C1806   1.408       .  A
C1802      C1803   1.394       .  A
C1802      H1807   1.084       .  S
C1803      C1804   1.404       .  A
C1803      O1808   1.372       .  S
C1804      C1805   1.395       .  A
C1805      C1806   1.391       .  A
C1805      H1809   1.084       .  S
C1806      O1810   1.372       .  S
O1808      H1812   0.992       .  S
O1810      H1811   0.992       .  S
C1813      C1814   1.399       .  A
C1813      C1818   1.409       .  A
C1814      C1815   1.401       .  A
C1814      H1819   1.084       .  S
C1815      C1816   1.409       .  A
C1816      C1817   1.393       .  A
C1817      C1818   1.387       .  A
C1817      H1821   1.084       .  S
C1818      O1822   1.371       .  S
O1822      H1823   0.992       .  S
C1825      C1826   1.399       .  A
C1825      C1830   1.407       .  A
C1826      C1827   1.392       .  A
C1826      H1831   1.084       .  S
C1827      C1828   1.409       .  A
C1827      O1832   1.372       .  S
C1828      C1829   1.406       .  A
C1829      C1830   1.404       .  A
C1829      H1833   1.084       .  S
C1830      O1834   1.372       .  S
O1832      H1836   0.992       .  S
O1834      H1835   0.991       .  S
C1837      C1838   1.407       .  A
C1837      C1842   1.417       .  A
C1838      C1839   1.403       .  A
C1838      H1843   1.083       .  S
C1839      C1840   1.407       .  A
C1839      O1844   1.372       .  S
C1840      C1841   1.399       .  A
C1841      C1842   1.401       .  A
C1841      H1845   1.084       .  S
C1842      O1846   1.372       .  S
O1844      H1848   0.992       .  S
O1846      H1847   0.992       .  S
O1849      C1857   1.299       .  A
O1849     Co1869   2.092       .  S
O1850      C1858   1.293       .  A
O1850     Co1870   2.066       .  S
O1851      C1859   1.265       .  A
O1851     Co1871   1.951       .  S
O1852      C1860   1.262       .  A
O1852     Co1872   1.963       .  S
O1853      C1859   1.276       .  A
O1853     Co1870   2.022       .  S
O1854      C1860   1.268       .  A
O1854     Co1869   1.995       .  S
O1855      C1858   1.275       .  A
O1855     Co1872   1.902       .  S
O1856      C1857   1.274       .  A
O1856     Co1871   1.890       .  S
C1857      C2453   1.489       .  S
C1858      C2441   1.461       .  S
C1859      C2381   1.471       .  S
C1860      C2429   1.457       .  S
O1861      C1874   1.256       .  A
O1861     Co1869   1.947       .  S
O1862      C1875   1.258       .  A
O1862     Co1870   1.967       .  S
O1863      C1876   1.258       .  A
O1863     Co1871   2.000       .  S
O1864      C1877   1.259       .  A
O1864     Co1872   2.015       .  S
O1865      C1877   1.258       .  A
O1865     Co1870   1.966       .  S
O1866      C1876   1.249       .  A
O1866     Co1869   1.932       .  S
O1867      C1874   1.273       .  A
O1867     Co1872   2.032       .  S
O1868      C1875   1.269       .  A
O1868     Co1871   2.034       .  S
Co1869     O1873   2.069       .  S
Co1870     O1873   2.066       .  S
Co1871     O1873   1.979       .  S
Co1872     O1873   1.978       .  S
C1874      C2369   1.481       .  S
C1875      C2408   1.486       .  S
C1876      C2417   1.455       .  S
C1877      C2393   1.469       .  S
O1878      C1886   1.294       .  A
O1878     Co1898   2.075   1_554  S
O1879      C1887   1.249       .  A
O1879     Co1899   1.965       .  S
O1880      C1888   1.251       .  A
O1880     Co1900   1.976       .  S
O1881      C1889   1.274       .  A
O1881     Co1901   1.888       .  S
O1882      C1888   1.261       .  A
O1882     Co1899   2.014       .  S
O1883      C1889   1.299       .  A
O1883     Co1898   2.077       .  S
O1884      C1887   1.241       .  A
O1884     Co1901   2.004       .  S
O1885      C1886   1.264       .  A
O1885     Co1900   1.892   1_554  S
C1886      C2384   1.475       .  S
C1887      C2309   1.475       .  S
C1888      C2297   1.483       .  S
C1889      C2321   1.482       .  S
O1890      C1903   1.259       .  A
O1890     Co1898   2.015       .  S
O1891      C1904   1.258       .  A
O1891     Co1899   1.947       .  S
O1892      C1905   1.244       .  A
O1892     Co1900   1.920       .  S
O1893      C1906   1.294       .  A
O1893     Co1901   2.036       .  S
O1894      C1906   1.271       .  A
O1894     Co1899   2.002       .  S
O1895      C1905   1.264       .  A
O1895     Co1898   2.002       .  S
O1896      C1903   1.262       .  A
O1896     Co1901   1.977       .  S
O1897      C1904   1.271       .  A
O1897     Co1900   2.019       .  S
Co1898     O1902   2.196       .  S
Co1899     O1902   2.053       .  S
Co1900     O1902   1.926       .  S
Co1901     O1902   1.934       .  S
C1903      C2357   1.477       .  S
C1904      C2348   1.469       .  S
C1905      C2333   1.449       .  S
C1906      C2372   1.475       .  S
O1907      C1915   1.281       .  A
O1907     Co1927   2.060       .  S
O1908      C1916   1.267   1_554  A
O1908     Co1928   2.013       .  S
O1909      C1917   1.267       .  A
O1909     Co1929   1.960       .  S
O1910      C1918   1.259       .  A
O1910     Co1930   1.985       .  S
O1911      C1917   1.291       .  A
O1911     Co1928   2.062       .  S
O1912      C1918   1.264       .  A
O1912     Co1927   2.018       .  S
O1913      C1916   1.255       .  A
O1913     Co1930   1.952       .  S
O1914      C1915   1.264   1_554  A
O1914     Co1929   1.895       .  S
C1916      C2324   1.472       .  S
C1917      C2276   1.493       .  S
C1918      C2225   1.476       .  S
O1919      C1932   1.262       .  A
O1919     Co1927   1.973       .  S
O1920      C1933   1.251       .  A
O1920     Co1928   1.965       .  S
O1921     Co1929   2.113       .  S
O1922      C1935   1.276   1_556  A
O1922     Co1930   2.033       .  S
O1923      C1935   1.263       .  A
O1923     Co1928   1.958       .  S
O1924     Co1927   1.903       .  S
O1925      C1932   1.272       .  A
O1925     Co1930   2.030       .  S
O1926      C1933   1.254       .  A
O1926     Co1929   2.015       .  S
Co1927     O1931   1.989       .  S
Co1928     O1931   2.024   1_554  S
Co1929     O1931   2.030   1_554  S
Co1930     O1931   2.052       .  S
C1933      C2237   1.480       .  S
C1934      C2249   1.474       .  S
O1936      C1944   1.271       .  A
O1936     Co1956   1.865       .  S
O1937      C1945   1.259       .  A
O1937     Co1957   1.968       .  S
O1938      C1946   1.277       .  A
O1938     Co1958   1.872       .  S
O1939      C1947   1.245       .  A
O1939     Co1959   1.947       .  S
O1940      C1946   1.312       .  A
O1940     Co1957   2.122       .  S
O1941      C1947   1.257       .  A
O1941     Co1956   2.019       .  S
O1942      C1945   1.262       .  A
O1942     Co1959   1.986       .  S
O1943      C1944   1.303       .  A
O1943     Co1958   2.093       .  S
C1945      C2420   1.445       .  S
C1946      C2204   1.485       .  S
C1947      C2240   1.488       .  S
O1948      C1961   1.303       .  A
O1948     Co1956   2.088       .  S
O1949      C1962   1.256       .  A
O1949     Co1957   1.949       .  S
O1950      C1963   1.295       .  A
O1950     Co1958   2.067       .  S
O1951      C1964   1.264       .  A
O1951     Co1959   1.928       .  S
O1952      C1964   1.290       .  A
O1952     Co1957   2.062       .  S
O1953      C1963   1.261       .  A
O1953     Co1956   1.941       .  S
O1954      C1961   1.273       .  A
O1954     Co1959   1.879       .  S
O1955      C1962   1.292       .  A
O1955     Co1958   2.081       .  S
Co1956     O1960   1.950       .  S
Co1957     O1960   2.015       .  S
Co1958     O1960   1.919       .  S
Co1959     O1960   1.886       .  S
C1962      C2228   1.483       .  S
C1963      C2177   1.462       .  S
O1965      C1973   1.272       .  A
O1965     Co1985   1.953       .  S
O1966      C1974   1.265       .  A
O1966     Co1986   1.984       .  S
O1967      C1975   1.269   1_554  A
O1967     Co1987   2.038       .  S
O1968      C1976   1.279       .  A
O1968     Co1988   2.078       .  S
O1969      C1975   1.254   1_554  A
O1969     Co1986   1.963       .  S
O1970      C1976   1.252       .  A
O1970     Co1985   1.975       .  S
O1971      C1974   1.266       .  A
O1971     Co1988   1.983       .  S
O1972      C1973   1.278       .  A
O1972     Co1987   2.041       .  S
C1973      C2300   1.476       .  S
C1974      C2288   1.473       .  S
C1975      C2132   1.487       .  S
C1976      C2168   1.500       .  S
O1977      C1990   1.273       .  A
O1977     Co1985   2.041       .  S
O1978      C1991   1.277       .  A
O1978     Co1986   2.069       .  S
O1979      C1992   1.266       .  A
O1979     Co1987   1.948       .  S
O1980      C1993   1.274       .  A
O1980     Co1988   2.021       .  S
O1981      C1993   1.271       .  A
O1981     Co1986   2.002       .  S
O1982      C1992   1.284       .  A
O1982     Co1985   2.064       .  S
O1983      C1990   1.257       .  A
O1983     Co1988   1.963       .  S
O1984      C1991   1.247       .  A
O1984     Co1987   1.954       .  S
Co1985     O1989   2.066       .  S
Co1986     O1989   2.082       .  S
Co1987     O1989   2.040       .  S
Co1988     O1989   2.074       .  S
C1990      C2141   1.483       .  S
C1991      C2273   1.498       .  S
C1992      C2405   1.482       .  S
C1993      C2153   1.524       .  S
O1994      C2002   1.271       .  A
O1994     Co2014   1.956       .  S
O1995      C2003   1.271       .  A
O1995     Co2015   1.999       .  S
O1996      C2004   1.278       .  A
O1996     Co2016   2.046       .  S
O1997      C2005   1.268       .  A
O1997     Co2017   2.053       .  S
O1998      C2004   1.263       .  A
O1998     Co2015   1.962       .  S
O1999      C2005   1.248       .  A
O1999     Co2014   1.976       .  S
O2000      C2003   1.258       .  A
O2000     Co2017   1.956       .  S
O2001      C2002   1.276       .  A
O2001     Co2016   2.034       .  S
C2002      C2396   1.468       .  S
C2003      C2213   1.473       .  S
C2004      C2144   1.498       .  S
C2005      C2120   1.485       .  S
O2006      C2019   1.274       .  A
O2006     Co2014   2.036       .  S
O2007      C2020   1.269       .  A
O2007     Co2015   2.045       .  S
O2008      C2021   1.275       .  A
O2008     Co2016   1.980       .  S
O2009      C2022   1.271       .  A
O2009     Co2017   2.003       .  S
O2010      C2022   1.260       .  A
O2010     Co2015   1.961       .  S
O2011      C2021   1.273       .  A
O2011     Co2014   2.025       .  S
O2012      C2019   1.259       .  A
O2012     Co2017   1.968       .  S
O2013      C2020   1.247       .  A
O2013     Co2016   1.969       .  S
Co2014     O2018   2.019       .  S
Co2015     O2018   2.067       .  S
Co2016     O2018   2.051       .  S
Co2017     O2018   2.085       .  S
C2019      C2129   1.476       .  S
C2020      C2201   1.493       .  S
C2021      C2312   1.482       .  S
C2022      C2108   1.485       .  S
O2023      C2031   1.274       .  A
O2024      C2032   1.258       .  A
O2024     Co2044   2.016       .  S
O2025      C2033   1.274       .  A
O2025     Co2045   1.903       .  S
O2026      C2034   1.262       .  A
O2026     Co2046   1.949       .  S
O2027      C2033   1.310       .  A
O2027     Co2044   2.144       .  S
O2028      C2034   1.275       .  A
O2028     Co2043   2.023       .  S
O2029      C2032   1.245       .  A
O2029     Co2046   1.953       .  S
O2030     Co2045   1.968       .  S
C2031      C2456   1.471   1_545  S
C2032      C2444   1.472       .  S
C2033      C2165   1.512       .  S
C2034      C2084   1.462       .  S
O2035      C2048   1.250       .  A
O2035     Co2043   1.956       .  S
O2036      C2049   1.267       .  A
O2036     Co2044   1.914       .  S
O2037      C2050   1.275       .  A
O2038      C2051   1.288       .  A
O2038     Co2046   2.058       .  S
O2039      C2051   1.278       .  A
O2039     Co2044   1.998       .  S
O2040      C2050   1.252       .  A
O2041      C2048   1.265       .  A
O2041     Co2046   2.019       .  S
O2042      C2049   1.284       .  A
O2042     Co2045   2.065       .  S
Co2043     O2047   2.000       .  S
Co2044     O2047   2.018       .  S
Co2045     O2047   2.011       .  S
Co2046     O2047   2.020       .  S
C2049      C2096   1.457       .  S
C2050      C2252   1.482   1_545  S
O2052      C2060   1.296       .  A
O2053      C2061   1.262       .  A
O2053     Co2073   1.972       .  S
O2054      C2062   1.257       .  A
O2054     Co2074   1.982       .  S
O2055      C2063   1.288       .  A
O2055     Co2075   2.037       .  S
O2056      C2062   1.274       .  A
O2056     Co2073   2.034       .  S
O2057      C2063   1.279       .  A
O2057     Co2072   1.909       .  S
O2058      C2061   1.257       .  A
O2058     Co2075   1.966       .  S
O2059      C2060   1.272       .  A
C2060      C2360   1.475   1_545  S
C2061      C2345   1.459       .  S
C2062      C2117   1.478       .  S
C2063      C2093   1.456       .  S
O2064     Co2072   2.051       .  S
O2065      C2078   1.269       .  A
O2065     Co2073   1.982       .  S
O2066      C2079   1.256   1_545  A
O2067      C2080   1.262       .  A
O2067     Co2075   1.966       .  S
O2068      C2080   1.277       .  A
O2068     Co2073   2.024       .  S
O2069      C2079   1.261       .  A
O2070     Co2075   1.954       .  S
O2071      C2078   1.265       .  A
O2071     Co2074   1.980       .  S
Co2072     O2076   2.090       .  S
Co2073     O2076   2.031       .  S
Co2074     O2076   1.899       .  S
Co2075     O2076   1.992       .  S
C2077      C2264   1.477   1_455  S
C2078      C2081   1.456       .  S
C2079      C2180   1.463       .  S
C2081      C2082   1.398       .  A
C2081      C2086   1.405       .  A
C2082      C2083   1.394       .  A
C2082      H2087   1.084       .  S
C2083      C2084   1.409       .  A
C2083      O2088   1.372       .  S
C2084      C2085   1.401       .  A
C2085      C2086   1.395       .  A
C2085      H2089   1.083       .  S
C2086      O2090   1.372       .  S
O2088      H2092   0.992       .  S
O2090      H2091   0.992       .  S
C2093      C2094   1.397       .  A
C2093      C2098   1.409       .  A
C2094      C2095   1.392   1_556  A
C2094      H2099   1.084       .  S
C2095      C2096   1.404       .  A
C2095      O2100   1.370       .  S
C2096      C2097   1.401       .  A
C2097      C2098   1.400   1_554  A
C2097      H2101   1.084       .  S
C2098      O2102   1.371       .  S
O2102      H2103   0.992       .  S
C2105      C2106   1.405       .  A
C2105      C2110   1.415       .  A
C2106      C2107   1.405       .  A
C2106      H2111   1.083       .  S
C2107      C2108   1.414       .  A
C2107      O2112   1.372       .  S
C2108      C2109   1.403       .  A
C2109      C2110   1.396       .  A
C2109      H2113   1.084       .  S
C2110      O2114   1.372       .  S
O2112      H2116   0.992       .  S
O2114      H2115   0.992       .  S
C2117      C2118   1.397       .  A
C2117      C2122   1.411       .  A
C2118      C2119   1.406       .  A
C2118      H2123   1.084       .  S
C2119      C2120   1.415       .  A
C2119      O2124   1.371       .  S
C2120      C2121   1.403       .  A
C2121      C2122   1.407       .  A
C2121      H2125   1.084       .  S
C2122      O2126   1.371       .  S
O2124      H2128   0.992       .  S
O2126      H2127   0.992       .  S
C2129      C2130   1.407       .  A
C2129      C2134   1.403       .  A
C2130      C2131   1.409       .  A
C2130      H2135   1.084       .  S
C2131      C2132   1.410       .  A
C2131      O2136   1.371       .  S
C2132      C2133   1.408       .  A
C2133      C2134   1.398       .  A
C2133      H2137   1.084       .  S
C2134      O2138   1.372       .  S
O2136      H2140   0.992       .  S
O2138      H2139   0.991       .  S
C2141      C2142   1.407       .  A
C2141      C2146   1.406       .  A
C2142      C2143   1.417       .  A
C2142      H2147   1.083       .  S
C2143      C2144   1.415       .  A
C2143      O2148   1.371       .  S
C2144      C2145   1.408       .  A
C2145      C2146   1.393       .  A
C2145      H2149   1.083       .  S
C2146      O2150   1.374       .  S
O2148      H2152   0.991       .  S
O2150      H2151   0.992       .  S
C2153      C2154   1.413       .  A
C2153      C2158   1.419       .  A
C2154      C2155   1.415       .  A
C2154      H2159   1.083       .  S
C2155      C2156   1.412       .  A
C2155      O2160   1.372       .  S
C2156      C2157   1.411       .  A
C2157      C2158   1.418       .  A
C2157      H2161   1.083       .  S
C2158      O2162   1.371       .  S
O2160      H2164   0.990       .  S
O2162      H2163   0.992       .  S
C2165      C2166   1.413       .  A
C2165      C2170   1.414       .  A
C2166      C2167   1.414       .  A
C2166      H2171   1.083       .  S
C2167      C2168   1.409       .  A
C2167      O2172   1.371       .  S
C2168      C2169   1.408       .  A
C2169      C2170   1.413       .  A
C2169      H2173   1.083       .  S
C2170      O2174   1.370       .  S
O2172      H2176   0.992       .  S
O2174      H2175   0.992       .  S
C2177      C2178   1.400       .  A
C2178      H2183   1.081       .  S
C2179      C2180   1.406       .  A
C2180      C2181   1.402       .  A
C2181      C2182   1.398       .  A
C2181      H2185   1.084       .  S
C2182      O2186   1.371       .  S
O2184      H2188   0.992       .  S
O2186      H2187   0.992       .  S
C2189      C2190   1.400       .  A
C2190      C2191   1.400       .  A
C2190      H2195   1.084       .  S
C2191      C2192   1.411       .  A
C2191      O2196   1.373       .  S
C2193      C2194   1.396       .  A
C2193      H2197   1.084       .  S
C2194      O2198   1.373   1_545  S
O2196      H2200   0.991       .  S
O2198      H2199   0.992       .  S
C2201      C2202   1.406       .  A
C2201      C2206   1.418       .  A
C2202      C2203   1.408       .  A
C2202      H2207   1.083       .  S
C2203      C2204   1.413       .  A
C2203      O2208   1.371       .  S
C2204      C2205   1.399       .  A
C2205      C2206   1.397       .  A
C2205      H2209   1.084       .  S
C2206      O2210   1.370       .  S
O2208      H2212   0.992       .  S
O2210      H2211   0.992       .  S
C2213      C2214   1.399       .  A
C2213      C2218   1.412       .  A
C2214      C2215   1.390       .  A
C2214      H2219   1.084       .  S
C2215      C2216   1.414       .  A
C2215      O2220   1.373       .  S
C2216      C2217   1.405       .  A
C2217      C2218   1.405       .  A
C2218      O2222   1.371       .  S
O2220      H2224   0.992       .  S
O2222      H2223   0.992       .  S
C2225      C2226   1.406       .  A
C2225      C2230   1.404       .  A
C2226      C2227   1.410       .  A
C2226      H2231   1.083       .  S
C2227      C2228   1.410       .  A
C2227      O2232   1.371       .  S
C2228      C2229   1.406       .  A
C2229      C2230   1.396       .  A
C2229      H2233   1.084       .  S
C2230      O2234   1.372       .  S
O2232      H2236   0.992       .  S
O2234      H2235   0.992       .  S
C2237      C2238   1.399       .  A
C2237      C2242   1.409       .  A
C2238      C2239   1.393       .  A
C2238      H2243   1.084       .  S
C2239      C2240   1.416       .  A
C2239      O2244   1.373       .  S
C2240      C2241   1.410       .  A
C2241      C2242   1.410       .  A
C2241      H2245   1.083       .  S
C2242      O2246   1.371       .  S
O2244      H2248   0.991       .  S
O2246      H2247   0.992       .  S
C2249      C2250   1.411       .  A
C2250      C2251   1.417       .  A
C2250      H2255   1.083       .  S
C2251      C2252   1.410       .  A
C2251      O2256   1.371       .  S
C2252      C2253   1.403       .  A
C2254      O2258   1.371   1_455  S
O2256      H2260   0.992       .  S
C2261      C2266   1.410       .  A
C2262      C2263   1.375   1_565  A
C2262      H2267   1.070       .  S
C2264      C2265   1.412       .  A
C2265      C2266   1.418       .  A
C2265      H2269   1.083       .  S
C2266      O2270   1.370       .  S
O2268      H2272   0.992       .  S
O2270      H2271   0.992       .  S
C2273      C2274   1.406       .  A
C2273      C2278   1.417       .  A
C2274      C2275   1.409       .  A
C2274      H2279   1.083   1_554  S
C2275      C2276   1.416       .  A
C2275      O2280   1.371   1_554  S
C2276      C2277   1.401       .  A
C2277      C2278   1.404       .  A
C2277      H2281   1.084       .  S
C2278      O2282   1.372       .  S
O2280      H2284   0.992       .  S
O2282      H2283   0.991       .  S
C2285      C2286   1.407       .  A
C2285      C2290   1.412       .  A
C2286      C2287   1.409       .  A
C2287      C2288   1.408       .  A
C2287      O2292   1.371       .  S
C2288      C2289   1.398       .  A
C2289      C2290   1.397       .  A
C2289      H2293   1.084       .  S
C2290      O2294   1.373       .  S
O2292      H2296   0.992   1_554  S
O2294      H2295   0.992       .  S
C2297      C2298   1.409   1_556  A
C2297      C2302   1.408       .  A
C2298      C2299   1.402       .  A
C2298      H2303   1.082       .  S
C2299      C2300   1.407       .  A
C2299      O2304   1.371       .  S
C2300      C2301   1.408       .  A
C2301      C2302   1.398   1_554  A
C2301      H2305   1.084   1_554  S
C2302      O2306   1.372       .  S
O2304      H2308   0.992       .  S
O2306      H2307   0.992       .  S
C2309      C2310   1.389       .  A
C2309      C2314   1.415       .  A
C2310      C2311   1.374       .  A
C2310      H2315   1.084       .  S
C2311      C2312   1.414       .  A
C2311      O2316   1.369       .  S
C2312      C2313   1.407       .  A
C2313      C2314   1.417       .  A
C2313      H2317   1.083       .  S
C2314      O2318   1.370       .  S
O2316      H2320   0.992       .  S
O2318      H2319   0.992       .  S
C2321      C2322   1.404       .  A
C2321      C2326   1.415       .  A
C2322      C2323   1.392       .  A
C2322      H2327   1.083       .  S
C2323      C2324   1.409       .  A
C2323      O2328   1.373       .  S
C2324      C2325   1.402   1_556  A
C2325      C2326   1.404   1_554  A
C2325      H2329   1.084       .  S
C2326      O2330   1.372   1_556  S
O2328      H2332   0.992       .  S
O2330      H2331   0.992       .  S
C2333      C2334   1.394       .  A
C2333      C2338   1.408       .  A
C2334      C2335   1.391       .  A
C2334      H2339   1.084       .  S
C2335      C2336   1.414       .  A
C2336      C2337   1.398       .  A
C2337      C2338   1.389       .  A
C2337      H2341   1.084   1_556  S
C2338      O2342   1.373       .  S
O2340      H2344   0.992       .  S
O2342      H2343   0.992   1_556  S
C2345      C2346   1.396       .  A
C2345      C2350   1.406       .  A
C2346      C2347   1.392       .  A
C2346      H2351   1.084       .  S
C2347      C2348   1.411       .  A
C2347      O2352   1.373       .  S
C2348      C2349   1.404       .  A
C2349      C2350   1.400       .  A
C2349      H2353   1.084       .  S
C2350      O2354   1.371       .  S
O2352      H2356   0.992       .  S
O2354      H2355   0.991       .  S
C2357      C2358   1.406       .  A
C2357      C2362   1.407       .  A
C2358      C2359   1.398       .  A
C2358      H2363   1.083       .  S
C2359      C2360   1.408       .  A
C2359      O2364   1.372       .  S
C2360      C2361   1.405       .  A
C2361      C2362   1.396       .  A
C2361      H2365   1.084       .  S
C2362      O2366   1.370       .  S
O2364      H2368   0.992   1_565  S
O2366      H2367   0.992       .  S
C2369      C2370   1.409       .  A
C2369      C2374   1.406       .  A
C2370      C2371   1.395       .  A
C2370      H2375   1.084       .  S
C2371      C2372   1.403       .  A
C2371      O2376   1.375       .  S
C2372      C2373   1.410       .  A
C2373      C2374   1.406       .  A
C2373      H2377   1.084       .  S
C2374      O2378   1.371       .  S
O2376      H2380   0.992       .  S
O2378      H2379   0.992       .  S
C2381      C2382   1.402       .  A
C2381      C2386   1.408       .  A
C2382      C2383   1.394       .  A
C2382      H2387   1.084       .  S
C2383      C2384   1.410       .  A
C2383      O2388   1.372       .  S
C2384      C2385   1.405       .  A
C2385      C2386   1.402       .  A
C2385      H2389   1.083       .  S
C2386      O2390   1.372       .  S
O2388      H2392   0.992       .  S
O2390      H2391   0.992       .  S
C2393      C2394   1.400       .  A
C2393      C2398   1.406       .  A
C2394      C2395   1.398       .  A
C2394      H2399   1.084       .  S
C2395      C2396   1.409       .  A
C2395      O2400   1.373       .  S
C2396      C2397   1.403       .  A
C2397      C2398   1.405       .  A
C2397      H2401   1.084       .  S
C2398      O2402   1.372       .  S
O2400      H2404   0.992       .  S
O2402      H2403   0.991       .  S
C2405      C2406   1.407       .  A
C2405      C2410   1.408       .  A
C2406      C2407   1.408       .  A
C2406      H2411   1.084       .  S
C2407      C2408   1.412       .  A
C2407      O2412   1.372       .  S
C2408      C2409   1.406       .  A
C2409      C2410   1.398       .  A
C2409      H2413   1.084       .  S
C2410      O2414   1.373       .  S
O2412      H2416   0.992       .  S
O2414      H2415   0.992       .  S
C2417      C2418   1.400       .  A
C2417      C2422   1.408       .  A
C2418      C2419   1.394       .  A
C2418      H2423   1.084       .  S
C2419      C2420   1.404       .  A
C2419      O2424   1.372       .  S
C2420      C2421   1.395       .  A
C2421      C2422   1.391       .  A
C2421      H2425   1.084       .  S
C2422      O2426   1.372       .  S
O2424      H2428   0.992       .  S
O2426      H2427   0.992       .  S
C2429      C2430   1.399       .  A
C2429      C2434   1.409       .  A
C2430      C2431   1.401       .  A
C2430      H2435   1.084       .  S
C2431      C2432   1.409       .  A
C2432      C2433   1.393       .  A
C2433      C2434   1.387       .  A
C2433      H2437   1.084       .  S
C2434      O2438   1.371       .  S
O2438      H2439   0.992       .  S
C2441      C2442   1.399       .  A
C2441      C2446   1.407       .  A
C2442      C2443   1.392       .  A
C2442      H2447   1.084       .  S
C2443      C2444   1.409       .  A
C2443      O2448   1.372       .  S
C2444      C2445   1.406       .  A
C2445      C2446   1.404       .  A
C2445      H2449   1.084       .  S
C2446      O2450   1.372       .  S
O2448      H2452   0.992       .  S
O2450      H2451   0.991       .  S
C2453      C2454   1.407       .  A
C2453      C2458   1.417       .  A
C2454      C2455   1.403       .  A
C2454      H2459   1.083       .  S
C2455      C2456   1.407       .  A
C2455      O2460   1.372       .  S
C2456      C2457   1.399       .  A
C2457      C2458   1.401       .  A
C2457      H2461   1.084       .  S
C2458      O2462   1.372       .  S
O2460      H2464   0.992   1_565  S
O2462      H2463   0.992       .  S
