geometry optimzed in LAMMPS
_audit_creation_date              2020-11-30 
_audit_creation_method            'lammps2cif' 
_symmetry_space_group_name_H-M    'P1' 
_symmetry_Int_Tables_number       1 
_symmetry_cell_setting            triclinic 
loop_ 
_symmetry_equiv_pos_as_xyz 
  x,y,z 
_cell_length_a                    33.02632777 
_cell_length_b                    33.06154918735124 
_cell_length_c                    62.42104260999002 
_cell_angle_alpha                 89.99985256077973 
_cell_angle_beta                  89.92873859611292 
_cell_angle_gamma                 120.10213680379118 
loop_ 
_atom_site_label 
_atom_site_type_symbol 
_atom_site_fract_x 
_atom_site_fract_y 
_atom_site_fract_z 
_atom_site_charge 
O1          O  0.08248717  0.29101213  0.32969207    -0.88500
C2          C  0.18519662  0.36579646  0.28602488     0.87500
Mg3        Mg  0.07655512  0.32076155  0.35952604     1.58100
O4          O  0.19276952  0.27956301  0.31604707    -0.88200
O5          O  0.08214774  0.23004124  0.31639617    -0.75600
C6          C  0.28546090  0.41384528  0.40388958     0.92600
O7          O  0.13380624  0.40064672  0.32115341    -0.75400
O8          O  0.24921381  0.41804195  0.40491957    -0.82900
Mg9        Mg  0.09029533  0.33248161  0.30177485     1.58000
C10         C  0.32655217  0.32347284  0.34026352     0.92500
O11         O  0.04576532  0.27143542  0.27896469    -0.81200
H12         H  0.16924991  0.21313174  0.32462853    -0.06500
C13         C  0.26954242  0.41293536  0.34055686     0.87400
O14         O  0.10836312  0.28333634  0.37821866    -0.75700
O15         O  0.15171965  0.33000803  0.29345157    -0.88400
O16         O  0.29797099  0.30783430  0.32477016    -0.81200
C17         C  0.23805445  0.28665167  0.26387238     0.92600
C18         C  0.05138391  0.24667888  0.26489067     0.92500
Mg19       Mg  0.24644555  0.32937712  0.36703572     1.58000
O20         O  0.29099717  0.39151663  0.38863950    -0.81200
O21         O  0.20384531  0.26045603  0.34819786    -0.75400
O22         O  0.19534151  0.27627839  0.26445267    -0.81200
O23         O  0.02304348  0.33058030  0.31048863    -0.83000
O24         O  0.13902041  0.38171926  0.40561283    -0.81300
C25         C  0.18794104  0.24955586  0.32923822     0.86900
O26         O  0.18398212  0.33008859  0.37584294    -0.88400
O27         O  0.25228748  0.37019988  0.33932113    -0.88500
O28         O  0.25347509  0.43080676  0.35361677    -0.75600
Mg29       Mg  0.14127128  0.25997187  0.29134168     1.58000
O30         O  0.26598279  0.30902615  0.27903436    -0.83000
H31         H  0.03609110  0.22605027  0.33906013    -0.06700
O32         O  0.14332587  0.38144334  0.35359273    -0.88200
H33         H  0.16868094  0.44797535  0.34468855    -0.06500
H34         H  0.15592746  0.27055769  0.39265594    -0.06700
C35         C  0.14929979  0.41150263  0.34019171     0.86900
C36         C  0.06537876  0.24826849  0.32882740     0.87500
C37         C  0.15002467  0.29403685  0.38282993     0.87500
H38         H  0.29858777  0.43547088  0.33027538    -0.06700
O39         O  0.22701449  0.37746812  0.29071811    -0.75700
Mg40       Mg  0.19422454  0.39990463  0.37873059     1.58000
H41         H  0.17867744  0.38841498  0.27587539    -0.06700
C42         C  0.01139177  0.34140299  0.32800034     0.92500
O43         O  0.06992377  0.35355456  0.38997693    -0.82900
C44         C  0.09733175  0.37462212  0.40549495     0.92500
O45         O  0.08660030  0.24085540  0.26545259    -0.82900
Mg46       Mg  0.25905904  0.34085088  0.30955743     1.58200
O47         O  0.03855374  0.35445219  0.34405972    -0.81200
O48         O  0.31516049  0.33435796  0.35782293    -0.82900
C49         C  0.30186951  0.19004149  0.20858509    -0.11000
C50         C  0.28666611  0.14491909  0.21643504    -0.04900
C51         C  0.30069757  0.11549214  0.20693541    -0.11000
C52         C  0.33041782  0.13135168  0.18876144     0.09900
C53         C  0.34596254  0.17696236  0.18057799    -0.02800
C54         C  0.33124541  0.20619055  0.19034134     0.09700
C55         C  0.34660951  0.25097502  0.18176038    -0.12800
C56         C  0.37691579  0.26733684  0.16427551    -0.12800
C57         C  0.39236547  0.23924739  0.15451055     0.09700
C58         C  0.37663003  0.19355695  0.16266983    -0.02800
C59         C  0.34478538  0.10276942  0.17848397    -0.12900
C60         C  0.37425403  0.11878563  0.16065331    -0.12900
C61         C  0.39079469  0.16410748  0.15264964     0.09900
C62         C  0.42098804  0.18093878  0.13475769    -0.11000
C63         C  0.43741439  0.22628637  0.12747434    -0.04900
C64         C  0.42316151  0.25542116  0.13673999    -0.11000
H65         H  0.33557342  0.27397406  0.18860490     0.07200
H66         H  0.38842144  0.30236750  0.15854181     0.07200
H67         H  0.33312273  0.06762841  0.18409789     0.07400
H68         H  0.38446051  0.09558007  0.15328817     0.07400
H69         H  0.26471069  0.13303685  0.23062210     0.03800
H70         H  0.45929402  0.23801101  0.11323250     0.03800
C71         C  0.83149076  0.08723146  0.19955589    -0.11000
C72         C  0.87568101  0.11530748  0.20848375    -0.04900
C73         C  0.90569233  0.16053354  0.20115158    -0.11000
C74         C  0.89234032  0.17813174  0.18353207     0.09900
C75         C  0.84774408  0.14988016  0.17399445    -0.02800
C76         C  0.81699193  0.10440024  0.18216465     0.09700
C77         C  0.77272003  0.07739988  0.17276265    -0.12800
C78         C  0.75860110  0.09477408  0.15580255    -0.12800
C79         C  0.78868944  0.13934084  0.14717368     0.09700
C80         C  0.83359342  0.16737097  0.15647246    -0.02800
C81         C  0.92220287  0.22300983  0.17524795    -0.12900
C82         C  0.90874146  0.23978290  0.15773969    -0.12900
C83         C  0.86467719  0.21250248  0.14808380     0.09900
C84         C  0.85080943  0.22913415  0.13025402    -0.11000
C85         C  0.80606901  0.20133664  0.12150464    -0.04900
C86         C  0.77506613  0.15654796  0.12945355    -0.11000
H87         H  0.74857328  0.04243017  0.17840223     0.07200
H88         H  0.72374987  0.07276408  0.14948969     0.07200
H89         H  0.95645782  0.24528150  0.18213689     0.07400
H90         H  0.93305396  0.27455865  0.15191634     0.07400
H91         H  0.88573277  0.10285968  0.22246732     0.03800
H92         H  0.79624807  0.21370784  0.10743970     0.03800
O93         O  0.25365404  0.88453967  0.33882601    -0.88500
C94         C  0.14438313  0.84213251  0.38080821     0.87500
Mg95       Mg  0.26112398  0.92363605  0.30985150     1.58100
O96         O  0.14469047  0.75345461  0.34980409    -0.88200
O97         O  0.25448909  0.82260376  0.35046814    -0.75600
C98         C  0.05461871  0.79858516  0.26160424     0.92600
O99         O  0.19388111  0.93409596  0.34861210    -0.75400
O100        O  0.08732960  0.84134510  0.26235530    -0.82900
Mg101      Mg  0.23884229  0.91088095  0.36753090     1.58000
C102        C  0.02000298  0.65784700  0.31935477     0.92500
O103        O  0.28526875  0.89542327  0.38908514    -0.81200
H104        H  0.17560856  0.71767167  0.34047057    -0.06500
C105        C  0.06490869  0.80670237  0.32519384     0.87400
O106        O  0.23359083  0.85737571  0.28937127    -0.75700
O107        O  0.17978247  0.84327375  0.37364676    -0.88400
O108        O  0.03676065  0.67319053  0.33788036    -0.81200
C109        C  0.09619686  0.70955297  0.40109694     0.92600
C110        C  0.28380144  0.86484307  0.40195969     0.92500
Mg111      Mg  0.09895082  0.75497295  0.29731267     1.58000
O112        O  0.05278097  0.76870883  0.27498490    -0.81200
O113        O  0.14380580  0.73252954  0.31644073    -0.75400
O114        O  0.13886400  0.74271015  0.40099836    -0.81200
O115        O  0.30257300  0.98128174  0.36214684    -0.83000
O116        O  0.19859863  0.92411454  0.26340731    -0.81300
C117        C  0.15505454  0.73346476  0.33595908     0.86900
O118        O  0.15755486  0.82334762  0.29129443    -0.88400
O119        O  0.08296255  0.78181559  0.32572521    -0.88500
O120        O  0.08173051  0.84330155  0.31368289    -0.75600
Mg121      Mg  0.19473479  0.78663493  0.37513731     1.58000
O122        O  0.06887952  0.70351640  0.38552071    -0.83000
H123        H  0.30127819  0.86819031  0.32893888    -0.06700
O124        O  0.19191495  0.91371957  0.31499953    -0.88200
H125        H  0.16087894  0.94892513  0.32509005    -0.06500
H126        H  0.18973905  0.79808176  0.27316769    -0.06700
C127        C  0.18170918  0.93319468  0.32920087     0.86900
C128        C  0.27130760  0.85929332  0.33902156     0.87500
C129        C  0.19313418  0.82519478  0.28395430     0.87500
H130        H  0.03459513  0.79760325  0.33506605    -0.06700
O131        O  0.10376864  0.81053424  0.37523866    -0.75700
Mg132      Mg  0.14196026  0.87952364  0.28927980     1.58000
H133        H  0.14812110  0.86952860  0.39149968    -0.06700
C134        C  0.31881413  0.00785976  0.34594899     0.92500
O135        O  0.26776736  0.96408483  0.27955175    -0.82900
C136        C  0.24117926  0.95763895  0.26361436     0.92500
O137        O  0.24978261  0.82280760  0.40171620    -0.82900
Mg138      Mg  0.07577339  0.74387869  0.35504535     1.58200
O139        O  0.30075924  0.99476515  0.32739920    -0.81200
O140        O  0.03596326  0.68321348  0.30272814    -0.82900
O141        O  0.63572936  0.74791064  0.34152146    -0.88500
C142        C  0.70786964  0.86388924  0.37952768     0.87500
Mg143      Mg  0.66402719  0.73956437  0.31167869     1.58100
O144        O  0.61129811  0.85640296  0.35222374    -0.88200
O145        O  0.57429366  0.74753005  0.35492126    -0.75600
C146        C  0.73241714  0.93833238  0.26026830     0.92600
O147        O  0.74759665  0.81149401  0.34747876    -0.75400
O148        O  0.74262054  0.90612190  0.26181023    -0.82900
Mg149      Mg  0.68271561  0.76809690  0.36854574     1.58000
C150        C  0.63407371  0.97822345  0.32017680     0.92500
O151        O  0.62616911  0.72420913  0.39259833    -0.81200
H152        H  0.54283150  0.82386236  0.34571997    -0.06500
C153        C  0.73886044  0.93698048  0.32355436     0.87400
O154        O  0.61992154  0.76291134  0.29240007    -0.75700
O155        O  0.67327528  0.82686187  0.37390923    -0.88400
O156        O  0.63028861  0.96071380  0.33878402    -0.81200
C157        C  0.62497123  0.90902206  0.40360428     0.92600
C158        C  0.59915051  0.72636827  0.40648628     0.92500
Mg159      Mg  0.64886602  0.89763869  0.29832343     1.58000
O160        O  0.70519682  0.94153295  0.27368313    -0.81200
O161        O  0.58471917  0.85433334  0.31990371    -0.75400
O162        O  0.61825238  0.86745653  0.40345906    -0.81200
O163        O  0.68959128  0.70440869  0.36355967    -0.83000
O164        O  0.71456122  0.79977215  0.26407585    -0.81300
C165        C  0.57820634  0.84437489  0.33972793     0.86900
O166        O  0.65885666  0.83916695  0.29316072    -0.88400
O167        O  0.69590880  0.91819623  0.32517662    -0.88500
O168        O  0.75787437  0.91916576  0.31222859    -0.75600
Mg169      Mg  0.60135654  0.80976864  0.37830511     1.58000
O170        O  0.64034343  0.93503799  0.38710148    -0.83000
H171        H  0.57047125  0.69871134  0.33398519    -0.06700
O172        O  0.72087399  0.81005670  0.31533432    -0.88200
H173        H  0.78940582  0.84210704  0.32165350    -0.06500
H174        H  0.59879923  0.80329083  0.27703730    -0.06700
C175        C  0.75406482  0.82173313  0.32770258     0.86900
C176        C  0.59280791  0.72982916  0.34313793     0.87500
C177        C  0.62505278  0.80219554  0.28695162     0.87500
H178        H  0.76077441  0.96866321  0.33243429    -0.06700
O179        O  0.71347547  0.90321462  0.37380032    -0.75700
Mg180      Mg  0.73087247  0.85651941  0.28928347     1.58000
H181        H  0.73457452  0.86275677  0.38907369    -0.06700
C182        C  0.69783155  0.68727551  0.34706470     0.92500
O183        O  0.69612263  0.73308267  0.28049151    -0.82900
C184        C  0.71146126  0.75976670  0.26418150     0.92500
O185        O  0.58913323  0.75886916  0.40594518    -0.82900
Mg186      Mg  0.66886789  0.92680373  0.35523311     1.58200
O187        O  0.70108790  0.70469217  0.32847531    -0.81200
O188        O  0.64207464  0.96111024  0.30359792    -0.82900
C189        C  0.82041177  0.72425882  0.20317842    -0.11000
C190        C  0.86430004  0.74000535  0.21239127    -0.04900
C191        C  0.89741157  0.73060329  0.20314332    -0.11000
C192        C  0.88503630  0.70203867  0.18447131     0.09900
C193        C  0.84090879  0.68701536  0.17463706    -0.02800
C194        C  0.80915499  0.69938688  0.18371427     0.09700
C195        C  0.76696225  0.68673016  0.17311837    -0.12800
C196        C  0.75574599  0.66188588  0.15400315    -0.12800
C197        C  0.78556542  0.64740503  0.14520615     0.09700
C198        C  0.82828558  0.65946563  0.15569412    -0.02800
C199        C  0.91528006  0.68839740  0.17519767    -0.12900
C200        C  0.90191711  0.65949369  0.15708347    -0.12900
C201        C  0.85858917  0.64464912  0.14707323     0.09900
C202        C  0.84476766  0.61619790  0.12840789    -0.11000
C203        C  0.80271474  0.60513568  0.11829823    -0.04900
C204        C  0.77380258  0.62129166  0.12608326    -0.11000
H205        H  0.74252585  0.69655211  0.17939846     0.07200
H206        H  0.72300899  0.65337865  0.14635382     0.07200
H207        H  0.94946406  0.69968799  0.18194063     0.07400
H208        H  0.92606695  0.64933127  0.15076778     0.07400
H209        H  0.87259423  0.75940025  0.22730902     0.03800
H210        H  0.79318383  0.58506642  0.10354556     0.03800
O211        O  0.45914032  0.05064159  0.00385409    -0.88500
C212        C  0.48784767  0.97777438  0.04895799     0.87500
Mg213      Mg  0.42264595  0.02094943  0.97412396     1.58100
O214        O  0.58263706  0.06088861  0.01813090    -0.88200
O215        O  0.52193275  0.11097737  0.01648881    -0.75600
C216        C  0.53152012  0.91893657  0.93217081     0.92600
O217        O  0.39886694  0.94083354  0.01397307    -0.75400
O218        O  0.49188321  0.91653510  0.93158433    -0.82900
Mg219      Mg  0.42628251  0.01002800  0.03229575     1.58000
C220        C  0.66882168  0.01168028  0.99403424     0.92500
O221        O  0.44410714  0.07162955  0.05416498    -0.81200
H222        H  0.62634756  0.12616143  0.00816124    -0.06500
C223        C  0.51951036  0.92542061  0.99592057     0.87400
O224        O  0.49189054  0.05447512  0.95528657    -0.75700
O225        O  0.49052701  0.01260308  0.04032811    -0.88400
O226        O  0.65776323  0.02832908  0.00984524    -0.81200
C227        C  0.62053903  0.05658916  0.07084377     0.92600
C228        C  0.47439717  0.09719671  0.06800279     0.92500
Mg229      Mg  0.58138084  0.00564155  0.96775948     1.58000
O230        O  0.56085664  0.94120688  0.94698854    -0.81200
O231        O  0.61060727  0.07636897  0.98546219    -0.75400
O232        O  0.58839113  0.06718313  0.06968168    -0.81200
O233        O  0.35993099  0.01051621  0.02443331    -0.83000
O234        O  0.41817427  0.95256278  0.92948309    -0.81300
C235        C  0.60741639  0.08933449  0.00427659     0.86900
O236        O  0.51836611  0.00626004  0.95903664    -0.88400
O237        O  0.54765458  0.96781030  0.99635447    -0.88500
O238        O  0.48487804  0.90827032  0.98317467    -0.75600
Mg239      Mg  0.55088375  0.08239423  0.04221748     1.58000
O240        O  0.62632828  0.03353943  0.05603862    -0.83000
H241        H  0.48052916  0.11572079  0.99378307    -0.06700
O242        O  0.42493615  0.95843790  0.98108841    -0.88200
H243        H  0.38239808  0.89254218  0.99052260    -0.06500
H244        H  0.55150751  0.06409698  0.94114024    -0.06700
C245        C  0.40098214  0.92915787  0.99480343     0.86900
C246        C  0.48646303  0.09321019  0.00428790     0.87500
C247        C  0.52182250  0.04215951  0.95122774     0.87500
H248        H  0.52426130  0.90249568  0.00666866    -0.06700
O249        O  0.51783228  0.96545492  0.04516487    -0.75700
Mg250      Mg  0.45666860  0.93733688  0.95702288     1.58000
H251        H  0.45871842  0.95669007  0.05948356    -0.06700
C252        C  0.33653261  0.00094524  0.00720420     0.92500
O253        O  0.38249878  0.98823437  0.94341175    -0.82900
C254        C  0.38684229  0.96445126  0.92850370     0.92500
O255        O  0.51568068  0.10340693  0.06771314    -0.82900
Mg256      Mg  0.58600682  0.99920500  0.02572369     1.58200
O257        O  0.35138468  0.99376713  0.98965463    -0.81200
O258        O  0.64472675  0.99961290  0.97696069    -0.82900
O259        O  0.55613863  0.58415680  0.99029523    -0.88500
C260        C  0.50977156  0.46952732  0.95168928     0.87500
Mg261      Mg  0.59494166  0.59199595  0.01894015     1.58100
O262        O  0.42198843  0.47237321  0.98234982    -0.88200
O263        O  0.49185203  0.58235085  0.98024521    -0.75600
C264        C  0.47123437  0.39350159  0.07136065     0.92600
O265        O  0.60487238  0.52202521  0.98155378    -0.75400
O266        O  0.51330940  0.42613830  0.06881466    -0.82900
Mg267      Mg  0.58052620  0.56507428  0.96212976     1.58000
C268        C  0.32563829  0.34832377  0.01472278     0.92500
O269        O  0.56440181  0.60853719  0.93950068    -0.81200
H270        H  0.38327128  0.50126346  0.98993081    -0.06500
C271        C  0.47387874  0.39326725  0.00742014     0.87400
O272        O  0.52836300  0.56650656  0.03940083    -0.75700
O273        O  0.51201270  0.50592257  0.95812063    -0.88400
O274        O  0.33869468  0.36434913  0.99578769    -0.81200
C275        C  0.37978217  0.42321934  0.93120007     0.92600
C276        C  0.53286180  0.60668459  0.92728207     0.92500
Mg277      Mg  0.42335376  0.43011464  0.03474026     1.58000
O278        O  0.43933983  0.38743238  0.05821196    -0.81200
O279        O  0.39808947  0.47176476  0.01499558    -0.75400
O280        O  0.41379265  0.46516091  0.93150855    -0.81200
O281        O  0.65177400  0.62887660  0.96598233    -0.83000
O282        O  0.58990924  0.53216958  0.06557052    -0.81300
C283        C  0.40007377  0.48222370  0.99533225     0.86900
O284        O  0.49202477  0.49020361  0.03842402    -0.88400
O285        O  0.44830285  0.41055511  0.00688331    -0.88500
O286        O  0.51190115  0.41221308  0.01792321    -0.75600
Mg287      Mg  0.45558767  0.52128606  0.95659799     1.58000
O288        O  0.37092188  0.39579745  0.94708897    -0.83000
H289        H  0.53975489  0.63174959  0.00008196    -0.06700
O290        O  0.58209082  0.52198130  0.01441064    -0.88200
H291        H  0.61886939  0.49122440  0.00636496    -0.06500
H292        H  0.46790457  0.52490857  0.05547267    -0.06700
C293        C  0.60290498  0.51121127  0.00119101     0.86900
C294        C  0.53022289  0.60107435  0.99045595     0.87500
C295        C  0.49490636  0.52676824  0.04501453     0.87500
H296        H  0.46426334  0.36194188  0.99828752    -0.06700
O297        O  0.47726921  0.42960246  0.95766094    -0.75700
Mg298      Mg  0.54833247  0.47506753  0.04075889     1.58000
H299        H  0.53691713  0.47176970  0.94121016    -0.06700
C300        C  0.67871889  0.64491207  0.98206772     0.92500
O301        O  0.63575414  0.59948021  0.04911204    -0.82900
C302        C  0.62575046  0.57296789  0.06538533     0.92500
O303        O  0.49038242  0.57427265  0.92929184    -0.82900
Mg304      Mg  0.41028866  0.40266609  0.97780599     1.58200
O305        O  0.66562977  0.62795335  0.00081052    -0.81200
O306        O  0.35227615  0.36566921  0.03085688    -0.82900
O307        O  0.03344365  0.44520019  0.99313760    -0.88500
C308        C  0.96857346  0.49167687  0.95247626     0.87500
Mg309      Mg  0.00326259  0.40946234  0.02297657     1.58100
O310        O  0.06276463  0.57803225  0.98244033    -0.88200
O311        O  0.09762950  0.50362642  0.98020428    -0.75600
C312        C  0.93020379  0.54069701  0.07204551     0.92600
O313        O  0.92353250  0.40037721  0.98569949    -0.75400
O314        O  0.91933988  0.49781162  0.07178722    -0.82900
Mg315      Mg  0.98882273  0.41868367  0.96534354     1.58000
C316        C  0.03583764  0.67792057  0.01317280     0.92500
O317        O  0.04652712  0.42897862  0.94200746    -0.81200
H318        H  0.12988559  0.61173506  0.99145964    -0.06500
C319        C  0.93115390  0.53168274  0.00868635     0.87400
O320        O  0.04655257  0.47665991  0.04235611    -0.75700
O321        O  0.00190767  0.48805815  0.95894219    -0.88400
O322        O  0.04211861  0.66428067  0.99499848    -0.81200
C323        C  0.05908603  0.62373294  0.93154158     0.92600
C324        C  0.07563608  0.45740016  0.92845006     0.92500
Mg325      Mg  0.01784850  0.58138095  0.03561494     1.58000
O326        O  0.95924228  0.56954306  0.05855098    -0.81200
O327        O  0.08412757  0.60099330  0.01554714    -0.75400
O328        O  0.06570904  0.58874173  0.93085229    -0.81200
O329        O  0.97807289  0.34633193  0.97124136    -0.83000
O330        O  0.94499644  0.41417370  0.07029547    -0.81300
C331        C  0.09371989  0.59768842  0.99609692     0.86900
O332        O  0.00654893  0.51286029  0.04203325    -0.88400
O333        O  0.97427757  0.55461549  0.00768244    -0.88500
O334        O  0.91030372  0.49574812  0.02055262    -0.75600
Mg335      Mg  0.07518692  0.54176798  0.95630201     1.58000
O336        O  0.03950229  0.63059549  0.94760583    -0.83000
H337        H  0.09680081  0.45673341  0.00146865    -0.06700
O338        O  0.94607522  0.42274126  0.01875968    -0.88200
H339        H  0.87870210  0.38956556  0.01018972    -0.06500
H340        H  0.06620984  0.53704609  0.05844694    -0.06700
C341        C  0.91467131  0.40333246  0.00528351     0.86900
C342        C  0.07655038  0.46756873  0.99196353     0.87500
C343        C  0.04041491  0.50989708  0.04827538     0.87500
H344        H  0.91071225  0.54198379  0.99900443    -0.06700
O345        O  0.96282502  0.52517736  0.95835863    -0.75700
Mg346      Mg  0.93357123  0.45861792  0.04467039     1.58000
H347        H  0.94292327  0.46491678  0.94210723    -0.06700
C348        C  0.96925277  0.32196068  0.98813883     0.92500
O349        O  0.97088029  0.37160142  0.05412666    -0.82900
C350        C  0.95227396  0.37964055  0.07020142     0.92500
O351        O  0.08817515  0.50088847  0.92902674    -0.82900
Mg352      Mg  0.00573474  0.59183649  0.97818622     1.58200
O353        O  0.96668574  0.33770609  0.00643171    -0.81200
O354        O  0.02532496  0.65215997  0.02967135    -0.82900
O355        O  0.28478388  0.07692979  0.66930025    -0.88500
C356        C  0.36963692  0.18263569  0.70979077     0.87500
Mg357      Mg  0.30792980  0.06698861  0.63853765     1.58100
O358        O  0.28074246  0.19217729  0.68349659    -0.88200
O359        O  0.22807045  0.08187810  0.68462540    -0.75600
C360        C  0.40130597  0.27268605  0.59062688     0.92600
O361        O  0.39621561  0.12540193  0.67396433    -0.75400
O362        O  0.40585107  0.23660961  0.59028505    -0.82900
Mg363      Mg  0.33098082  0.08604743  0.69547358     1.58000
C364        C  0.31841874  0.32062145  0.65575158     0.92500
O365        O  0.27298935  0.04478927  0.71983095    -0.81200
H366        H  0.21321740  0.16885010  0.67726284    -0.06500
C367        C  0.40999479  0.26262505  0.65422292     0.87400
O368        O  0.27060483  0.10016923  0.62120270    -0.75700
O369        O  0.33232000  0.14941542  0.70348117    -0.88400
O370        O  0.31305408  0.29942502  0.67338244    -0.81200
C371        C  0.29697848  0.24007407  0.73517337     0.92600
C372        C  0.25144518  0.05215814  0.73484156     0.92500
Mg373      Mg  0.32167012  0.23800358  0.63026472     1.58000
O374        O  0.37938456  0.27941539  0.60571781    -0.81200
O375        O  0.25642943  0.19863309  0.65176681    -0.75400
O376        O  0.28998912  0.19848724  0.73508968    -0.81200
O377        O  0.32666190  0.01761057  0.68743056    -0.83000
O378        O  0.36551146  0.12553971  0.59072415    -0.81300
C379        C  0.24875108  0.18613491  0.67129533     0.86900
O380        O  0.32065855  0.17500300  0.62205680    -0.88400
O381        O  0.36781298  0.24789442  0.65674665    -0.88500
O382        O  0.42442312  0.24340767  0.64103943    -0.75600
Mg383      Mg  0.26441265  0.14221815  0.70871897     1.58000
O384        O  0.31592954  0.26722291  0.71928938    -0.83000
H385        H  0.21757606  0.03309402  0.66218856    -0.06700
O386        O  0.37205556  0.13261889  0.64231577    -0.88200
H387        H  0.43955409  0.15579681  0.64856460    -0.06500
H388        H  0.25941342  0.14872179  0.60678415    -0.06700
C389        C  0.40399258  0.13840852  0.65450022     0.86900
C390        C  0.24258923  0.06240949  0.67165068     0.87500
C391        C  0.28299436  0.14188115  0.61603532     0.87500
H392        H  0.43509018  0.29204907  0.66360800    -0.06700
O393        O  0.38133628  0.22447077  0.70514734    -0.75700
Mg394      Mg  0.38887887  0.18265218  0.61691528     1.58000
H395        H  0.39332498  0.17587497  0.71899980    -0.06700
C396        C  0.33276899  0.00239984  0.66977890     0.92500
O397        O  0.33360917  0.05670706  0.60705051    -0.82900
C398        C  0.35398801  0.08244776  0.59098538     0.92500
O399        O  0.24745125  0.08850395  0.73505255    -0.82900
Mg400      Mg  0.34400082  0.25775559  0.68766649     1.58200
O401        O  0.33880034  0.02448866  0.65233577    -0.81200
O402        O  0.32538267  0.30571998  0.63822667    -0.82900
C403        C  0.16157445  0.38570930  0.86969181    -0.11000
C404        C  0.20260333  0.39379947  0.88001119    -0.04900
C405        C  0.23139212  0.37821786  0.87145240    -0.11000
C406        C  0.22046217  0.35528421  0.85151650     0.09900
C407        C  0.17835529  0.34516781  0.84098873    -0.02800
C408        C  0.14805090  0.35939926  0.85027878     0.09700
C409        C  0.10568069  0.34706918  0.83980683    -0.12800
C410        C  0.09317279  0.32101427  0.82074985    -0.12800
C411        C  0.12330976  0.30773204  0.81107806     0.09700
C412        C  0.16661974  0.32054551  0.82118987    -0.02800
C413        C  0.25053566  0.34193341  0.84199784    -0.12900
C414        C  0.24001450  0.31967325  0.82225497    -0.12900
C415        C  0.19837909  0.30871950  0.81157268     0.09900
C416        C  0.18752135  0.28566733  0.79160669    -0.11000
C417        C  0.14442714  0.27236160  0.78203944    -0.04900
C418        C  0.11185916  0.28222025  0.79152059    -0.11000
H419        H  0.08172348  0.35719435  0.84638328     0.07200
H420        H  0.05997315  0.31192454  0.81342741     0.07200
H421        H  0.28288874  0.34911973  0.84963350     0.07400
H422        H  0.26463024  0.31054021  0.81556330     0.07400
H423        H  0.21196650  0.41195236  0.89527495     0.03800
H424        H  0.13609371  0.25399649  0.76683770     0.03800
C425        C  0.15122194  0.78627569  0.87590299    -0.11000
C426        C  0.19600447  0.81773640  0.88379748    -0.04900
C427        C  0.22513218  0.86103213  0.87391283    -0.11000
C428        C  0.20908589  0.87315332  0.85523722     0.09900
C429        C  0.16381331  0.84167957  0.84695207    -0.02800
C430        C  0.13477553  0.79820359  0.85731308     0.09700
C431        C  0.09004499  0.76787249  0.84885233    -0.12800
C432        C  0.07379059  0.78005134  0.83072631    -0.12800
C433        C  0.10199273  0.82259492  0.82008175     0.09700
C434        C  0.14751697  0.85373829  0.82823238    -0.02800
C435        C  0.23725944  0.91566591  0.84449476    -0.12900
C436        C  0.22136636  0.92739668  0.82613012    -0.12900
C437        C  0.17681844  0.89691877  0.81766054     0.09900
C438        C  0.16041481  0.90844988  0.79897637    -0.11000
C439        C  0.11581409  0.87738867  0.79127982    -0.04900
C440        C  0.08609363  0.83525503  0.80153649    -0.11000
H441        H  0.06702538  0.73442827  0.85627489     0.07200
H442        H  0.03884362  0.75577117  0.82509764     0.07200
H443        H  0.27204807  0.94028479  0.85016775     0.07400
H444        H  0.24431498  0.96081164  0.81867117     0.07400
H445        H  0.20817667  0.80864590  0.89814990     0.03800
H446        H  0.10421827  0.88579919  0.77652869     0.03800
O447        O  0.91288044  0.20853605  0.66826290    -0.88500
C448        C  0.81725825  0.18692567  0.71512534     0.87500
Mg449      Mg  0.91442893  0.24063327  0.63766373     1.58100
O450        O  0.80370160  0.08761554  0.68744462    -0.88200
O451        O  0.91428485  0.14961953  0.68314291    -0.75600
C452        C  0.69651800  0.12221170  0.60203629     0.92600
O453        O  0.86559342  0.27050600  0.67776201    -0.75400
O454        O  0.73189268  0.16323969  0.60026106    -0.82900
Mg455      Mg  0.91084050  0.24644028  0.69585093     1.58000
C456        C  0.66834056  0.99265278  0.66587346     0.92500
O457        O  0.95878188  0.23215255  0.71735432    -0.81200
H458        H  0.82783979  0.04599805  0.67770512    -0.06500
C459        C  0.72421146  0.14295060  0.66455235     0.87400
O460        O  0.87774618  0.16949241  0.62081198    -0.75700
O461        O  0.84962310  0.18364663  0.70704170    -0.88400
O462        O  0.69337681  0.00974183  0.68249198    -0.81200
C463        C  0.76605253  0.05563882  0.74116181     0.92600
C464        C  0.95456025  0.20530164  0.73292763     0.92500
Mg465      Mg  0.74376325  0.08001194  0.63721273     1.58000
O466        O  0.69492994  0.09412671  0.61645789    -0.81200
O467        O  0.79035683  0.05739992  0.65517110    -0.75400
O468        O  0.80891976  0.08773713  0.73930348    -0.81200
O469        O  0.97758340  0.31031252  0.68399954    -0.83000
O470        O  0.84246127  0.23847207  0.59464736    -0.81300
C471        C  0.80789666  0.06279924  0.67381428     0.86900
O472        O  0.80336547  0.14309854  0.62623117    -0.88400
O473        O  0.74016262  0.11629050  0.66509825    -0.88500
O474        O  0.73938112  0.17643781  0.65124567    -0.75600
Mg475      Mg  0.85954971  0.12381883  0.71039062     1.58000
O476        O  0.73633050  0.04893795  0.72669457    -0.83000
H477        H  0.95624972  0.18669203  0.65823922    -0.06700
O478        O  0.84975348  0.23778879  0.64606871    -0.88200
H479        H  0.82819804  0.28189655  0.65517200    -0.06500
H480        H  0.82634850  0.10883629  0.60812851    -0.06700
C481        C  0.84721869  0.26425305  0.65928752     0.86900
C482        C  0.92913421  0.18218541  0.66933842     0.87500
C483        C  0.83508888  0.13933812  0.61774450     0.87500
H484        H  0.69731633  0.13813844  0.67585599    -0.06700
O485        O  0.77485649  0.15566934  0.71221611    -0.75700
Mg486      Mg  0.79298810  0.20264571  0.62368317     1.58000
H487        H  0.82515449  0.21758872  0.72443827    -0.06700
C488        C  0.98762405  0.33087584  0.66594687     0.92500
O489        O  0.91574409  0.27544663  0.60645887    -0.82900
C490        C  0.88541578  0.26992319  0.59248779     0.92500
O491        O  0.91876499  0.16453830  0.73455887    -0.82900
Mg492      Mg  0.73843736  0.08404681  0.69546320     1.58200
O493        O  0.95930387  0.31503476  0.65032154    -0.81200
O494        O  0.67912414  0.01425383  0.64810216    -0.82900
O495        O  0.74488741  0.63355855  0.66008655    -0.88500
C496        C  0.85897138  0.69767262  0.62019593     0.87500
Mg497      Mg  0.73722502  0.66585137  0.68847268     1.58100
O498        O  0.85356874  0.60732963  0.65212197    -0.88200
O499        O  0.74412126  0.56984121  0.64996635    -0.75600
C500        C  0.93873474  0.74303753  0.73981546     0.92600
O501        O  0.80882620  0.74393346  0.65035493    -0.75400
O502        O  0.90618778  0.75280037  0.73778840    -0.82900
Mg503      Mg  0.76439371  0.67598489  0.63150570     1.58000
C504        C  0.97830835  0.63733389  0.68413761     0.92500
O505        O  0.71953161  0.61616749  0.60940613    -0.81200
H506        H  0.82241029  0.54049546  0.66144730    -0.06500
C507        C  0.93465614  0.74033330  0.67570677     0.87400
O508        O  0.76255502  0.62585480  0.70962469    -0.75700
O509        O  0.82249454  0.66473043  0.62741121    -0.88400
O510        O  0.95969391  0.63053414  0.66562417    -0.81200
C511        C  0.90297286  0.61032855  0.60101361     0.92600
C512        C  0.72066990  0.58635149  0.59698855     0.92500
Mg513      Mg  0.89815209  0.65562384  0.70431258     1.58000
O514        O  0.94310109  0.71610053  0.72667893    -0.81200
O515        O  0.85417412  0.58735874  0.68546735    -0.75400
O516        O  0.86120757  0.60326028  0.60101119    -0.81200
O517        O  0.70119177  0.68476126  0.63502600    -0.83000
O518        O  0.79869490  0.72645145  0.73477177    -0.81300
C519        C  0.84285198  0.57689414  0.66596133     0.86900
O520        O  0.83888526  0.66550205  0.70853678    -0.88400
O521        O  0.91642676  0.69732855  0.67563211    -0.88500
O522        O  0.91727159  0.76067659  0.68640638    -0.75600
Mg523      Mg  0.80500305  0.59218718  0.62621104     1.58000
O524        O  0.93007210  0.62939438  0.61691995    -0.83000
H525        H  0.69592755  0.57014182  0.67006995    -0.06700
O526        O  0.80766343  0.72327366  0.68370602    -0.88200
H527        H  0.84009296  0.79027214  0.67459469    -0.06500
H528        H  0.80383121  0.60778117  0.72633527    -0.06700
C529        C  0.81932775  0.75399059  0.66994108     0.86900
C530        C  0.72671519  0.59055484  0.66033249     0.87500
C531        C  0.80218728  0.63235164  0.71544973     0.87500
H532        H  0.96562026  0.76108823  0.66612589    -0.06700
O533        O  0.89878120  0.70460995  0.62594447    -0.75700
Mg534      Mg  0.85550628  0.73764428  0.70989418     1.58000
H535        H  0.85696013  0.72183605  0.60918122    -0.06700
C536        C  0.68344392  0.69454308  0.65083866     0.92500
O537        O  0.73050282  0.70081003  0.71827345    -0.82900
C538        C  0.75718571  0.71992187  0.73430997     0.92500
O539        O  0.75229967  0.57524081  0.59882735    -0.82900
Mg540      Mg  0.92371402  0.66452508  0.64705848     1.58200
O541        O  0.69946254  0.69832735  0.66979844    -0.81200
O542        O  0.96245307  0.64876802  0.70013730    -0.82900
C543        C  0.58420067  0.75485243  0.86588171    -0.11000
C544        C  0.57165052  0.78468027  0.87584329    -0.04900
C545        C  0.58939776  0.83065001  0.86904302    -0.11000
C546        C  0.61980665  0.84758944  0.85117691     0.09900
C547        C  0.63188466  0.81732370  0.84036955    -0.02800
C548        C  0.61418028  0.77077136  0.84780713     0.09700
C549        C  0.62674737  0.74146443  0.83698114    -0.12800
C550        C  0.65602240  0.75742911  0.81909843    -0.12800
C551        C  0.67409913  0.80342172  0.81150999     0.09700
C552        C  0.66223255  0.83382601  0.82231003    -0.02800
C553        C  0.63860046  0.89381812  0.84394770    -0.12900
C554        C  0.66836447  0.91001967  0.82622077    -0.12900
C555        C  0.68011402  0.88046821  0.81494670     0.09900
C556        C  0.70936588  0.89628375  0.79655005    -0.11000
C557        C  0.72054357  0.86558589  0.78608800    -0.04900
C558        C  0.70328580  0.81963724  0.79321734    -0.11000
H559        H  0.61351829  0.70572153  0.84213492     0.07200
H560        H  0.66440676  0.73334335  0.81124294     0.07200
H561        H  0.63030882  0.91781372  0.85196518     0.07400
H562        H  0.68219099  0.94606095  0.82145193     0.07400
H563        H  0.54977832  0.77273267  0.89007863     0.03800
H564        H  0.74176638  0.87715286  0.77167059     0.03800
C565        C  0.03922865  0.55315793  0.45864260    -0.11000
C566        C  0.04943722  0.52109588  0.44889386    -0.04900
C567        C  0.03688421  0.47801629  0.45842528    -0.11000
C568        C  0.01324981  0.46628196  0.47832546     0.09900
C569        C  0.00349419  0.49871213  0.48868613    -0.02800
C570        C  0.01653519  0.54233327  0.47884680     0.09700
C571        C  0.00707567  0.57408936  0.48959264    -0.12800
C572        C  0.98528630  0.56330303  0.50963030    -0.12800
C573        C  0.97201421  0.52029782  0.51964100     0.09700
C574        C  0.98096072  0.48757228  0.50901796    -0.02800
C575        C  0.99956866  0.42312381  0.48821192    -0.12900
C576        C  0.97680799  0.41190436  0.50791355    -0.12900
C577        C  0.96760379  0.44374112  0.51870346     0.09900
C578        C  0.94546740  0.43283033  0.53898441    -0.11000
C579        C  0.93657969  0.46532474  0.54918323    -0.04900
C580        C  0.94969579  0.50885572  0.53992321    -0.11000
H581        H  0.01676093  0.60774976  0.48263480     0.07200
H582        H  0.97881317  0.58897512  0.51721541     0.07200
H583        H  0.00629794  0.39749779  0.48077563     0.07400
H584        H  0.96675536  0.37801192  0.51468752     0.07400
H585        H  0.06726140  0.52972152  0.43353742     0.03800
H586        H  0.91971343  0.45684169  0.56476601     0.03800
C587        C  0.51314841  0.57235536  0.46576549    -0.11000
C588        C  0.46905517  0.54417871  0.45678809    -0.04900
C589        C  0.43969771  0.49844680  0.46370004    -0.11000
C590        C  0.45400446  0.48022087  0.48074646     0.09900
C591        C  0.49823857  0.50886831  0.49054525    -0.02800
C592        C  0.52802940  0.55520677  0.48303923     0.09700
C593        C  0.57195634  0.58266735  0.49272057    -0.12800
C594        C  0.58611496  0.56528976  0.50977896    -0.12800
C595        C  0.55712466  0.51960305  0.51749950     0.09700
C596        C  0.51307341  0.49081491  0.50757853    -0.02800
C597        C  0.42570975  0.43404585  0.48796537    -0.12900
C598        C  0.44027990  0.41630890  0.50466919    -0.12900
C599        C  0.48350272  0.44422317  0.51487776     0.09900
C600        C  0.49805792  0.42696129  0.53225360    -0.11000
C601        C  0.54094617  0.45623539  0.54208796    -0.04900
C602        C  0.57049447  0.50192056  0.53512356    -0.11000
H603        H  0.59543450  0.61803219  0.48730002     0.07200
H604        H  0.62002288  0.58790241  0.51690780     0.07200
H605        H  0.39200060  0.41125239  0.48070947     0.07400
H606        H  0.41734502  0.38042308  0.50953470     0.07400
H607        H  0.45853888  0.55718217  0.44315963     0.03800
H608        H  0.55071325  0.44383820  0.55617915     0.03800
C609        C  0.51979454  0.94538337  0.46507632    -0.11000
C610        C  0.47746136  0.92643868  0.45388601    -0.04900
C611        C  0.44016239  0.93144301  0.46116088    -0.11000
C612        C  0.44494801  0.95580408  0.48050838     0.09900
C613        C  0.48754688  0.97482473  0.49222839    -0.02800
C614        C  0.52504242  0.96935968  0.48456727     0.09700
C615        C  0.56667380  0.98816207  0.49650742    -0.12800
C616        C  0.57174640  0.01252197  0.51553194    -0.12800
C617        C  0.53560787  0.01949985  0.52311534     0.09700
C618        C  0.49306837  0.00040262  0.51136501    -0.02800
C619        C  0.40880867  0.96270920  0.48814576    -0.12900
C620        C  0.41423076  0.98775288  0.50690630    -0.12900
C621        C  0.45605325  0.00697762  0.51867804     0.09900
C622        C  0.46204474  0.03298899  0.53753131    -0.11000
C623        C  0.50401534  0.05157249  0.54891595    -0.04900
C624        C  0.54063291  0.04500707  0.54215179    -0.11000
H625        H  0.59565101  0.98407887  0.49120507     0.07200
H626        H  0.60446437  0.02634745  0.52415585     0.07200
H627        H  0.37603943  0.94903096  0.47959747     0.07400
H628        H  0.38540331  0.99223605  0.51205118     0.07400
H629        H  0.47405329  0.90880928  0.43876242     0.03800
H630        H  0.50790816  0.07079007  0.56359484     0.03800
O631        O  0.96726138  0.04928432  0.01177334    -0.88500
C632        C  0.92540601  0.95470547  0.96262585     0.87500
Mg633      Mg  0.03647707  0.10874538  0.01430963     1.58100
O634        O  0.94108960  0.91346049  0.01218268    -0.88200
O635        O  0.91615215  0.98847413  0.03013736    -0.75600
C636        C  0.17283798  0.01874262  0.00065712     0.92600
O637        O  0.00326038  0.06836575  0.96278300    -0.75400
O638        O  0.17403091  0.05761215  0.99871682    -0.82900
Mg639      Mg  0.93387049  0.04017560  0.98110735     1.58000
C640        C  0.01970523  0.84436756  0.01228562     0.92500
O641        O  0.86283814  0.01646233  0.99604790    -0.81200
H642        H  0.92537830  0.89875705  0.04319546    -0.06500
C643        C  0.05214803  0.96468549  0.97062459     0.87400
O644        O  0.05759495  0.07025511  0.03850728    -0.75700
O645        O  0.92175933  0.96987130  0.98015924    -0.88400
O646        O  0.98171430  0.84000878  0.00488164    -0.81200
C647        C  0.84909421  0.82255899  0.98265502     0.92600
C648        C  0.82461345  0.97916203  0.00002120     0.92500
Mg649      Mg  0.06401516  0.95658501  0.01798446     1.58000
O650        O  0.13480056  0.98041379  0.00304375    -0.81200
O651        O  0.99454814  0.92773241  0.03635363    -0.75400
O652        O  0.84363042  0.85739543  0.98689866    -0.81200
O653        O  0.94461049  0.11365665  0.98212511    -0.83000
O654        O  0.15422129  0.13925866  0.01223364    -0.81300
C655        C  0.95220586  0.91221057  0.03096413     0.86900
O656        O  0.07524429  0.02647070  0.01909052    -0.88400
O657        O  0.03077959  0.94700961  0.98745496    -0.88500
O658        O  0.08184856  0.00808134  0.96924938    -0.75600
Mg659      Mg  0.88359601  0.92579341  0.00692449     1.58000
O660        O  0.88905449  0.82568493  0.98290329    -0.83000
H661        H  0.95357436  0.05380206  0.04261418    -0.06700
O662        O  0.05665706  0.08277656  0.98702600    -0.88200
H663        H  0.07242282  0.09714822  0.95599554    -0.06500
H664        H  0.08137937  0.02933161  0.05099386    -0.06700
C665        C  0.04557907  0.08389577  0.96821906     0.86900
C666        C  0.94594596  0.03182277  0.02864393     0.87500
C667        C  0.07227458  0.04157094  0.03673744     0.87500
H668        H  0.04474676  0.94286085  0.95661334    -0.06700
O669        O  0.94047633  0.92624578  0.96110099    -0.75700
Mg670      Mg  0.11381326  0.07073807  0.99254055     1.58000
H671        H  0.91655337  0.96672383  0.94822231    -0.06700
C672        C  0.98007727  0.15243395  0.98726288     0.92500
O673        O  0.10955949  0.17137124  0.01650961    -0.82900
C674        C  0.14954977  0.17458212  0.01632605     0.92500
O675        O  0.82252552  0.93973320  0.00193781    -0.82900
Mg676      Mg  0.96180864  0.88737147  0.98510931     1.58200
O677        O  0.01723519  0.15495625  0.99456847    -0.81200
O678        O  0.05458486  0.88407604  0.01665441    -0.82900
O679        O  0.68709430  0.26988995  0.34969599    -0.88500
C680        C  0.74693626  0.36427159  0.30099033     0.87500
Mg681      Mg  0.61328046  0.22194855  0.35047839     1.58100
O682        O  0.73295003  0.41208171  0.34910511    -0.88200
O683        O  0.73847893  0.32653539  0.36974685    -0.75600
C684        C  0.50863442  0.34253223  0.32997429     0.92600
O685        O  0.65753181  0.25710242  0.29965150    -0.75400
O686        O  0.50622844  0.30371853  0.32621021    -0.82900
Mg687      Mg  0.72219775  0.27422658  0.31965935     1.58000
C688        C  0.68422264  0.50621478  0.34577179     0.92500
O689        O  0.79244414  0.28870979  0.33441713    -0.81200
H690        H  0.74728614  0.42754741  0.38013517    -0.06500
C691        C  0.63381395  0.38257059  0.30399046     0.87400
O692        O  0.60083804  0.26990440  0.37286235    -0.75700
O693        O  0.74552332  0.34766867  0.31888552    -0.88400
O694        O  0.71711140  0.50009720  0.33897560    -0.81200
C695        C  0.83919734  0.49087504  0.32166827     0.92600
C696        C  0.83066374  0.32495162  0.33992776     0.92500
Mg697      Mg  0.61676204  0.39347959  0.35122841     1.58000
O698        O  0.54670767  0.37870290  0.33573819    -0.81200
O699        O  0.68154174  0.41098460  0.37145253    -0.75400
O700        O  0.83424951  0.45240854  0.32846260    -0.81200
O701        O  0.69534100  0.19581883  0.32026282    -0.83000
O702        O  0.50482681  0.21445658  0.34239593    -0.81300
C703        C  0.72209594  0.41779024  0.36731521     0.86900
O704        O  0.59332798  0.31976581  0.35252322    -0.88400
O705        O  0.65252121  0.39722514  0.32156801    -0.88500
O706        O  0.60120813  0.34069585  0.30151133    -0.75600
Mg707      Mg  0.78164719  0.38774847  0.34702143     1.58000
O708        O  0.80442506  0.49703060  0.31932328    -0.83000
H709        H  0.69324117  0.26162869  0.38101130    -0.06700
O710        O  0.60672177  0.25582105  0.32233875    -0.88200
H711        H  0.59152568  0.24025676  0.29138547    -0.06500
H712        H  0.58612834  0.31852635  0.38435912    -0.06700
C713        C  0.61706016  0.25007122  0.30405138     0.86900
C714        C  0.70598598  0.28457657  0.36725423     0.87500
C715        C  0.59259661  0.30324976  0.37038875     0.87500
H716        H  0.64677862  0.40546558  0.29022360    -0.06700
O717        O  0.73878497  0.39758843  0.29836737    -0.75700
Mg718      Mg  0.55783276  0.27962773  0.32421906     1.58000
H719        H  0.75381712  0.34902987  0.28712718    -0.06700
C720        C  0.65426403  0.16153743  0.32381597     0.92500
O721        O  0.53515865  0.17008177  0.35121848    -0.82900
C722        C  0.50008833  0.17561984  0.34850527     0.92500
O723        O  0.83304444  0.36347707  0.34438760    -0.82900
Mg724      Mg  0.72621910  0.44538209  0.32065976     1.58200
O725        O  0.62226593  0.16779921  0.33166318    -0.81200
O726        O  0.64336197  0.47195660  0.34970058    -0.82900
O727        O  0.30341263  0.71438228  0.68304814    -0.88500
C728        C  0.24189578  0.62723750  0.63201708     0.87500
Mg729      Mg  0.37503603  0.76976414  0.68070206     1.58100
O730        O  0.27591004  0.58072186  0.67419235    -0.88200
O731        O  0.26084510  0.65181394  0.70224172    -0.75600
C732        C  0.50221857  0.68129884  0.64603170     0.92600
O733        O  0.32157463  0.73831303  0.63275547    -0.75400
O734        O  0.49907467  0.71793360  0.64634682    -0.82900
Mg735      Mg  0.25944630  0.70979594  0.65645603     1.58000
C736        C  0.33999262  0.50350463  0.65975687     0.92500
O737        O  0.19044505  0.68319164  0.67623532    -0.81200
H738        H  0.26934569  0.55810884  0.70440373    -0.06500
C739        C  0.36830417  0.62969682  0.62406217     0.87400
O740        O  0.39990146  0.72500167  0.69874002    -0.75700
O741        O  0.24524234  0.64011844  0.65085467    -0.88400
O742        O  0.30255796  0.50512126  0.65768272    -0.81200
C743        C  0.16807722  0.49473378  0.65130637     0.92600
C744        C  0.15569163  0.64314064  0.68108400     0.92500
Mg745      Mg  0.39642661  0.61357425  0.66812558     1.58000
O746        O  0.46633848  0.64073225  0.64865500    -0.81200
O747        O  0.33431020  0.58343560  0.69171361    -0.75400
O748        O  0.16906950  0.53214052  0.65685165    -0.81200
O749        O  0.27628687  0.78427583  0.66238203    -0.83000
O750        O  0.48512182  0.78862848  0.67105908    -0.81300
C751        C  0.29183428  0.57315777  0.69060494     0.86900
O752        O  0.40950263  0.68254570  0.67449948    -0.88400
O753        O  0.35277779  0.61045008  0.64151872    -0.88500
O754        O  0.39847621  0.67295744  0.62285862    -0.75600
Mg755      Mg  0.21897473  0.59370250  0.67783708     1.58000
O756        O  0.20533484  0.49391495  0.64707052    -0.83000
H757        H  0.30320516  0.71593181  0.71506464    -0.06700
O758        O  0.38036114  0.74237864  0.65057376    -0.88200
H759        H  0.38633060  0.76254764  0.61996749    -0.06500
H760        H  0.42291789  0.67981114  0.70554864    -0.06700
C761        C  0.36409436  0.74860128  0.63391725     0.86900
C762        C  0.28951383  0.69533571  0.70066029     0.87500
C763        C  0.41155241  0.69509973  0.69333332     0.87500
H764        H  0.35532289  0.60951451  0.60950421    -0.06700
O765        O  0.25432985  0.59823138  0.62617434    -0.75700
Mg766      Mg  0.43826351  0.72998138  0.64824376     1.58000
H767        H  0.22910061  0.64185771  0.62012538    -0.06700
C768        C  0.31636056  0.82104302  0.66350971     0.92500
O769        O  0.44991255  0.82938433  0.67716879    -0.82900
C770        C  0.48685582  0.82723811  0.67436102     0.92500
O771        O  0.15938640  0.60683613  0.68164215    -0.82900
Mg772      Mg  0.28064223  0.55442254  0.64363405     1.58200
O773        O  0.35384530  0.81960083  0.66589122    -0.81200
O774        O  0.38006768  0.54005608  0.66129819    -0.82900
C775        C  0.02477544  0.59824709  0.67768761    -0.26500
C776        C  0.02197191  0.63564416  0.68650363    -0.14600
C777        C  0.06266557  0.67408237  0.69515884     0.36100
C778        C  0.10567404  0.67490777  0.69409379    -0.25900
C779        C  0.10884291  0.63801610  0.68472308    -0.15200
C780        C  0.06730273  0.59862522  0.67692067     0.37200
N781        N  0.06733108  0.55949204  0.66705359    -0.89400
H782        H  0.99378342  0.56890179  0.67086497     0.18300
H783        H  0.13712627  0.70511091  0.70004021     0.18300
N784        N  0.06066409  0.71320466  0.70401484    -0.88500
H785        H  0.07776673  0.54328448  0.67827516     0.35600
H786        H  0.09091081  0.57146669  0.65413769     0.40700
H787        H  0.05251776  0.72906649  0.69155875     0.40400
H788        H  0.09343885  0.73835290  0.70982727     0.35200
C789        C  0.58421530  0.72016185  0.65879994    -0.26500
C790        C  0.54984766  0.68725091  0.64496007    -0.14600
C791        C  0.56144878  0.66046393  0.63142353     0.36100
C792        C  0.60670128  0.66615936  0.63254226    -0.25900
C793        C  0.64009045  0.69693760  0.64741393    -0.15200
C794        C  0.62893138  0.72496296  0.66034248     0.37200
N795        N  0.66273725  0.75766972  0.67519918    -0.89400
H796        H  0.57548511  0.74109257  0.66910205     0.18300
H797        H  0.61505842  0.64455894  0.62252459     0.18300
N798        N  0.52768669  0.62815340  0.61644912    -0.88500
H799        H  0.64889453  0.77529363  0.68365051     0.35600
H800        H  0.69092718  0.78291728  0.66627103     0.40700
H801        H  0.50097707  0.60089343  0.62522684     0.40400
H802        H  0.54260377  0.61298959  0.60694311     0.35200
C803        C  0.69739147  0.73701205  0.74945729    -0.26500
C804        C  0.74061783  0.73872656  0.75195055    -0.14600
C805        C  0.76928294  0.76370670  0.76963630     0.36100
C806        C  0.75538006  0.78845316  0.78332773    -0.25900
C807        C  0.71348170  0.78852822  0.77994702    -0.15200
C808        C  0.68368940  0.76176285  0.76301231     0.37200
N809        N  0.63990166  0.75970844  0.75869240    -0.89400
H810        H  0.67462698  0.71797482  0.73619130     0.18300
H811        H  0.77791389  0.80885334  0.79642000     0.18300
N812        N  0.81301605  0.76527175  0.77331687    -0.88500
H813        H  0.64285648  0.77538830  0.74378299     0.35600
H814        H  0.63250074  0.77862756  0.76983760     0.40700
H815        H  0.80534368  0.73142927  0.77730171     0.40400
H816        H  0.83034108  0.78634008  0.78651907     0.35200
C817        C  0.64896508  0.57823300  0.57974145    -0.26500
C818        C  0.68447576  0.56636070  0.57976639    -0.14600
C819        C  0.68476412  0.53722525  0.56323231     0.36100
C820        C  0.64863908  0.51925762  0.54787780    -0.25900
C821        C  0.61271114  0.53026072  0.54838768    -0.15200
C822        C  0.61313990  0.56046582  0.56451827     0.37200
N823        N  0.57721308  0.57277239  0.56650530    -0.89400
H824        H  0.64806095  0.60090858  0.59203849     0.18300
H825        H  0.64757147  0.49525530  0.53576519     0.18300
N826        N  0.72100975  0.52529897  0.56217011    -0.88500
H827        H  0.55971578  0.55896347  0.58098527     0.35600
H828        H  0.55215842  0.55805502  0.55444979     0.40700
H829        H  0.75228461  0.55585405  0.55848588     0.40400
H830        H  0.71482435  0.50206158  0.54957027     0.35200
C831        C  0.97516540  0.57660096  0.56468274    -0.26500
C832        C  0.93966364  0.54123971  0.55234534    -0.14600
C833        C  0.89370687  0.53312466  0.55400493     0.36100
C834        C  0.88349495  0.55854687  0.56899583    -0.25900
C835        C  0.91820752  0.59164304  0.58273872    -0.15200
C836        C  0.96511301  0.60165752  0.57986490     0.37200
N837        N  0.00328941  0.63622496  0.59226342    -0.89400
H838        H  0.01066245  0.58311442  0.56328568     0.18300
H839        H  0.84755845  0.55051527  0.57064613     0.18300
N840        N  0.85724813  0.49766750  0.54103175    -0.88500
H841        H  0.99890152  0.62553685  0.60826150     0.35600
H842        H  0.00361751  0.66791551  0.59102215     0.40700
H843        H  0.86517622  0.50811271  0.52503386     0.40400
H844        H  0.82516003  0.49547982  0.54431633     0.35200
C845        C  0.57205041  0.87127567  0.68256431    -0.26500
C846        C  0.53285497  0.87034454  0.67330388    -0.14600
C847        C  0.53888269  0.90850200  0.66079719     0.36100
C848        C  0.58387751  0.94719647  0.65816390    -0.25900
C849        C  0.62300426  0.94882079  0.66784688    -0.15200
C850        C  0.61709261  0.91056681  0.68031810     0.37200
N851        N  0.65676032  0.91099553  0.69003465    -0.89400
H852        H  0.56738916  0.84133075  0.69168292     0.18300
H853        H  0.58835023  0.97670878  0.64873717     0.18300
N854        N  0.49950600  0.90728939  0.65031948    -0.88500
H855        H  0.64674983  0.87864496  0.69711584     0.35600
H856        H  0.66826128  0.93520079  0.70256006     0.40700
H857        H  0.48698355  0.88058948  0.63889308     0.40400
H858        H  0.50989076  0.93834891  0.64191530     0.35200
C859        C  0.03747500  0.40921019  0.64933297    -0.26500
C860        C  0.03409926  0.37289816  0.66231433    -0.14600
C861        C  0.07579686  0.37493891  0.66946700     0.36100
C862        C  0.11927677  0.41346814  0.66415436    -0.25900
C863        C  0.12249380  0.45081626  0.65214537    -0.15200
C864        C  0.08123141  0.44842285  0.64439412     0.37200
N865        N  0.08401623  0.48591087  0.63162188    -0.89400
H866        H  0.00581089  0.40719318  0.64322572     0.18300
H867        H  0.15078417  0.41520584  0.67032908     0.18300
N868        N  0.07526621  0.33806850  0.68176805    -0.88500
H869        H  0.05056388  0.47887698  0.62721875     0.35600
H870        H  0.10154840  0.48728405  0.61743887     0.40700
H871        H  0.05678971  0.30674367  0.67324663     0.40400
H872        H  0.05828892  0.33503827  0.69630465     0.35200
C873        C  0.78539573  0.01491378  0.76973464    -0.26500
C874        C  0.75133896  0.02149288  0.75931446    -0.14600
C875        C  0.70349911  0.98981927  0.76380746     0.36100
C876        C  0.69107227  0.95083538  0.77707277    -0.25900
C877        C  0.72508588  0.94271469  0.78627791    -0.15200
C878        C  0.77299755  0.97605547  0.78301802     0.37200
N879        N  0.81001421  0.97138290  0.79260506    -0.89400
H880        H  0.82219850  0.03871371  0.76661962     0.18300
H881        H  0.65441532  0.92536671  0.77950544     0.18300
N882        N  0.66751758  0.99625731  0.75427662    -0.88500
H883        H  0.82755934  0.96492136  0.78031120     0.35600
H884        H  0.79714902  0.94313784  0.80317138     0.40700
H885        H  0.67110590  0.02733982  0.76037708     0.40400
H886        H  0.63432141  0.96949895  0.75887536     0.35200
C887        C  0.61962086  0.05786371  0.58888992    -0.26500
C888        C  0.65663042  0.10429274  0.58649359    -0.14600
C889        C  0.65576629  0.13048127  0.56867911     0.36100
C890        C  0.61852814  0.10950915  0.55387707    -0.25900
C891        C  0.58209319  0.06318693  0.55643086    -0.15200
C892        C  0.58275148  0.03705014  0.57420040     0.37200
N893        N  0.54633878  0.98963089  0.57814231    -0.89400
H894        H  0.61915257  0.03688501  0.60232807     0.18300
H895        H  0.61728992  0.12971181  0.54048169     0.18300
N896        N  0.69236308  0.17807567  0.56557625    -0.88500
H897        H  0.56157706  0.96853122  0.57753206     0.35600
H898        H  0.52070713  0.97725009  0.56626600     0.40700
H899        H  0.68975753  0.19793823  0.57796342     0.40400
H900        H  0.68727497  0.19152956  0.55131791     0.35200
C901        C  0.94835531  0.33748726  0.57226163    -0.26500
C902        C  0.90026792  0.30509637  0.57476933    -0.14600
C903        C  0.86767729  0.31298276  0.56341039     0.36100
C904        C  0.88372960  0.35439042  0.55142289    -0.25900
C905        C  0.93145385  0.38791524  0.55021245    -0.15200
C906        C  0.96433950  0.37887001  0.56045127     0.37200
N907        N  0.01394306  0.41126399  0.55986645    -0.89400
H908        H  0.97401401  0.33209103  0.58061325     0.18300
H909        H  0.85871893  0.36122934  0.54336431     0.18300
N910        N  0.81829706  0.28033395  0.56487840    -0.88500
H911        H  0.02491098  0.42234569  0.57556496     0.35600
H912        H  0.02216567  0.44124322  0.55107632     0.40700
H913        H  0.81204943  0.24948377  0.55734824     0.40400
H914        H  0.79921833  0.29242379  0.55635079     0.35200
C915        C  0.03449792  0.76498175  0.78015169    -0.26500
C916        C  0.04060257  0.80504462  0.79065873    -0.14600
C917        C  0.00951750  0.82181678  0.78601872     0.36100
C918        C  0.97609293  0.80058354  0.76973005    -0.25900
C919        C  0.97224238  0.76250102  0.75806245    -0.15200
C920        C  0.00055789  0.74337008  0.76412575     0.37200
N921        N  0.99566879  0.70236539  0.75388439    -0.89400
H922        H  0.05816916  0.75199703  0.78346441     0.18300
H923        H  0.95393655  0.81501566  0.76578843     0.18300
N924        N  0.01235910  0.86161058  0.79681934    -0.88500
H925        H  0.98773158  0.67691835  0.76564583     0.35600
H926        H  0.02788512  0.71075785  0.74707607     0.40700
H927        H  0.03681861  0.87307868  0.80920878     0.40400
H928        H  0.98002157  0.85057785  0.80419978     0.35200
C929        C  0.02378761  0.27288083  0.75004869    -0.26500
C930        C  0.99204249  0.22424857  0.74975422    -0.14600
C931        C  0.99694061  0.19636568  0.76569219     0.36100
C932        C  0.03433440  0.21699980  0.78025253    -0.25900
C933        C  0.06697852  0.26514183  0.77976816    -0.15200
C934        C  0.06094940  0.29354017  0.76467425     0.37200
N935        N  0.09234039  0.34318595  0.76328903    -0.89400
H936        H  0.02030579  0.29550146  0.73854956     0.18300
H937        H  0.03913824  0.19483994  0.79154069     0.18300
N938        N  0.96570784  0.14696114  0.76720778    -0.88500
H939        H  0.10951649  0.35013019  0.74851204     0.35600
H940        H  0.11810120  0.35514539  0.77509385     0.40700
H941        H  0.96586887  0.13154050  0.75261521     0.40400
H942        H  0.93199617  0.14079107  0.77039568     0.35200
C943        C  0.29654396  0.41951909  0.66891099    -0.26500
C944        C  0.33583790  0.45722750  0.65932432    -0.14600
C945        C  0.36787537  0.44935815  0.64770963     0.36100
C946        C  0.36014119  0.40378088  0.64618703    -0.25900
C947        C  0.32139560  0.36628314  0.65614263    -0.15200
C948        C  0.28930887  0.37404948  0.66772304     0.37200
N949        N  0.24893227  0.33575725  0.67763844    -0.89400
H950        H  0.27160336  0.42568591  0.67750163     0.18300
H951        H  0.38497225  0.39755115  0.63752269     0.18300
N952        N  0.40743767  0.48733713  0.63715275    -0.88500
H953        H  0.22707066  0.34711652  0.68403814     0.35600
H954        H  0.26052337  0.32444820  0.69066511     0.40700
H955        H  0.39460802  0.49974046  0.62505415     0.40400
H956        H  0.42783064  0.47551654  0.62956556     0.35200
C957        C  0.29256085  0.87442789  0.67896039    -0.26500
C958        C  0.31979081  0.86710453  0.66395661    -0.14600
C959        C  0.35228451  0.90459469  0.65115673     0.36100
C960        C  0.35653680  0.94879616  0.65359331    -0.25900
C961        C  0.32997614  0.95645210  0.66894350    -0.15200
C962        C  0.29730058  0.91870414  0.68166077     0.37200
N963        N  0.26822877  0.92506891  0.69687861    -0.89400
H964        H  0.26796721  0.84553358  0.68887094     0.18300
H965        H  0.38087796  0.97751048  0.64354075     0.18300
N966        N  0.37967077  0.89737279  0.63530679    -0.88500
H967        H  0.24680976  0.89401554  0.70518007     0.35600
H968        H  0.24587132  0.93291063  0.68828398     0.40700
H969        H  0.40379947  0.89126218  0.64336146     0.40400
H970        H  0.39942439  0.92778403  0.62630095     0.35200
C971        C  0.19344338  0.01460030  0.76435926    -0.26500
C972        C  0.23125153  0.01772028  0.75263946    -0.14600
C973        C  0.24946188  0.98835825  0.75853240     0.36100
C974        C  0.22796616  0.95531261  0.77483717    -0.25900
C975        C  0.18883534  0.95075912  0.78570765    -0.15200
C976        C  0.17199695  0.98136308  0.78076345     0.37200
N977        N  0.13196245  0.97718154  0.79192944    -0.89400
H978        H  0.17962873  0.03721757  0.76030548     0.18300
H979        H  0.24069057  0.93154239  0.77840588     0.18300
N980        N  0.28985253  0.99121579  0.74848638    -0.88500
H981        H  0.12353871  0.00181415  0.78628070     0.35600
H982        H  0.14121745  0.98508637  0.80803702     0.40700
H983        H  0.31759055  0.02565047  0.74948326     0.40400
H984        H  0.28231145  0.98136646  0.73245027     0.35200
C985        C  0.25748727  0.31058430  0.76849488    -0.26500
C986        C  0.22037348  0.27482606  0.78008978    -0.14600
C987        C  0.21350295  0.22905145  0.77935474     0.36100
C988        C  0.24198799  0.21971221  0.76598172    -0.25900
C989        C  0.27705309  0.25469629  0.75304281    -0.15200
C990        C  0.28580896  0.30101612  0.75502364     0.37200
N991        N  0.32249948  0.33828542  0.74298010    -0.89400
H992        H  0.26337648  0.34589201  0.76927697     0.18300
H993        H  0.23453262  0.18391694  0.76483103     0.18300
N994        N  0.17709203  0.19086577  0.79129793    -0.88500
H995        H  0.34528222  0.36370820  0.75377269     0.35600
H996        H  0.30759701  0.35328746  0.73337159     0.40700
H997        H  0.15833006  0.20166379  0.80085300     0.40400
H998        H  0.19319960  0.17865456  0.80181287     0.35200
C999        C  0.39686090  0.09333629  0.55650287    -0.26500
C1000       C  0.37016421  0.06345921  0.57335013    -0.14600
C1001       C  0.36766413  0.01949748  0.57528213     0.36100
C1002       C  0.39499208  0.00863352  0.56191417    -0.25900
C1003       C  0.42499117  0.04058711  0.54664162    -0.15200
C1004       C  0.42444365  0.08257387  0.54320042     0.37200
N1005       N  0.45335268  0.11624167  0.52728712    -0.89400
H1006       H  0.39902207  0.12692204  0.55451083     0.18300
H1007       H  0.39522413  0.97631661  0.56450007     0.18300
N1008       N  0.33993446  0.98685561  0.59165706    -0.88500
H1009       H  0.43109683  0.11976952  0.51651840     0.35600
H1010       H  0.47205838  0.10443947  0.51830389     0.40700
H1011       H  0.36214650  0.98095198  0.60144337     0.40400
H1012       H  0.31643996  0.95524586  0.58429551     0.35200
C1013       C  0.45777885  0.31100526  0.56025530    -0.26500
C1014       C  0.42135451  0.30802767  0.57307766    -0.14600
C1015       C  0.40495331  0.33968240  0.56920376     0.36100
C1016       C  0.42874622  0.37645988  0.55456292    -0.25900
C1017       C  0.46744392  0.38155171  0.54308944    -0.15200
C1018       C  0.48101327  0.34746213  0.54528180     0.37200
N1019       N  0.51835615  0.35006275  0.53236656    -0.89400
H1020       H  0.46945592  0.28597654  0.56250090     0.18300
H1021       H  0.41823865  0.40250484  0.55271086     0.18300
N1022       N  0.36452782  0.33482684  0.58028253    -0.88500
H1023       H  0.52223386  0.32099457  0.53512781     0.35600
H1024       H  0.54965463  0.37916742  0.53724277     0.40700
H1025       H  0.33568133  0.30335222  0.57529864     0.40400
H1026       H  0.35771359  0.36132625  0.57582069     0.35200
C1027       C  0.95447109  0.20455173  0.96997788    -0.26500
C1028       C  0.97704851  0.19564342  0.98685597    -0.14600
C1029       C  0.99450025  0.22701834  0.00429996     0.36100
C1030       C  0.98953379  0.26663080  0.00438263    -0.25900
C1031       C  0.96813252  0.27651728  0.98735656    -0.15200
C1032       C  0.95078990  0.24534834  0.96977549     0.37200
N1033       N  0.92868500  0.25446017  0.95208829    -0.89400
H1034       H  0.94058852  0.18013939  0.95674284     0.18300
H1035       H  0.00363266  0.29070102  0.01774499     0.18300
N1036       N  0.01660561  0.21819217  0.02212943    -0.88500
H1037       H  0.91509488  0.22651065  0.94130188     0.35600
H1038       H  0.95464386  0.28314099  0.94371184     0.40700
H1039       H  0.99118260  0.18790030  0.02981269     0.40400
H1040       H  0.02834421  0.24512979  0.03340517     0.35200
C1041       C  0.00066067  0.72410966  0.02686722    -0.26500
C1042       C  0.03609344  0.72291145  0.01476293    -0.14600
C1043       C  0.06720665  0.76263398  0.00274772     0.36100
C1044       C  0.06186600  0.80232835  0.00287868    -0.25900
C1045       C  0.02516858  0.80265830  0.01419080    -0.15200
C1046       C  0.99425008  0.76316192  0.02634195     0.37200
N1047       N  0.95691400  0.76300575  0.03827574    -0.89400
H1048       H  0.97636095  0.69348704  0.03595824     0.18300
H1049       H  0.08560650  0.83275441  0.99352837     0.18300
N1050       N  0.10376799  0.76237817  0.99033834    -0.88500
H1051       H  0.93847658  0.73198682  0.04702247     0.35600
H1052       H  0.93319900  0.76322584  0.02726991     0.40700
H1053       H  0.12654512  0.75949539  0.00102622     0.40400
H1054       H  0.12339399  0.79416191  0.98228058     0.35200
C1055       C  0.06230913  0.69314450  0.91381228    -0.26500
C1056       C  0.07748992  0.66014528  0.91419580    -0.14600
C1057       C  0.11466792  0.66754838  0.90025838     0.36100
C1058       C  0.13635561  0.70773638  0.88733496    -0.25900
C1059       C  0.12262024  0.74160600  0.88791408    -0.15200
C1060       C  0.08452153  0.73375796  0.90118129     0.37200
N1061       N  0.06885188  0.76708530  0.90320391    -0.89400
H1062       H  0.03413914  0.68866319  0.92427771     0.18300
H1063       H  0.16556041  0.71349655  0.87727366     0.18300
N1064       N  0.13296125  0.63640950  0.89951426    -0.88500
H1065       H  0.03472369  0.75143107  0.89722541     0.35600
H1066       H  0.08898017  0.79708822  0.89410071     0.40700
H1067       H  0.10608601  0.60318758  0.89511989     0.40400
H1068       H  0.14549928  0.63492046  0.91468990     0.35200
C1069       C  0.09366929  0.37321173  0.89215841    -0.26500
C1070       C  0.13409496  0.40414074  0.88086903    -0.14600
C1071       C  0.15350872  0.45260403  0.88420890     0.36100
C1072       C  0.13333372  0.46924114  0.89921462    -0.25900
C1073       C  0.09415144  0.43830771  0.91152416    -0.15200
C1074       C  0.07360234  0.38932828  0.90732154     0.37200
N1075       N  0.03269179  0.35454413  0.91824742    -0.89400
H1076       H  0.07893483  0.33588127  0.89003147     0.18300
H1077       H  0.14953586  0.50659924  0.90172140     0.18300
N1078       N  0.19482006  0.48505615  0.87278385    -0.88500
H1079       H  0.00555688  0.36177492  0.91613181     0.35600
H1080       H  0.04019781  0.35481710  0.93451765     0.40700
H1081       H  0.22083835  0.50484642  0.88398950     0.40400
H1082       H  0.18727603  0.50769113  0.86425591     0.35200
C1083       C  0.23856309  0.30472195  0.01143920    -0.26500
C1084       C  0.27962975  0.30561470  0.01778221    -0.14600
C1085       C  0.27708355  0.26449629  0.02584089     0.36100
C1086       C  0.23370044  0.22270231  0.02642460    -0.25900
C1087       C  0.19251760  0.22107055  0.01937755    -0.15200
C1088       C  0.19480745  0.26317257  0.01258392     0.37200
N1089       N  0.15326606  0.26333939  0.00585860    -0.89400
H1090       H  0.24075162  0.33650265  0.00541702     0.18300
H1091       H  0.23231161  0.19082501  0.03174497     0.18300
N1092       N  0.31894133  0.26490027  0.03255756    -0.88500
H1093       H  0.16154425  0.29637247  0.00018080     0.35600
H1094       H  0.13246877  0.25731382  0.01945857     0.40700
H1095       H  0.34019554  0.27171543  0.01905904     0.40400
H1096       H  0.31106875  0.23195794  0.03820250     0.35200
C1097       C  0.72591425  0.72619688  0.96909349    -0.26500
C1098       C  0.72467587  0.68773451  0.97935947    -0.14600
C1099       C  0.76604777  0.69293396  0.98851682     0.36100
C1100       C  0.80702452  0.73660811  0.98797953    -0.25900
C1101       C  0.80740250  0.77594889  0.97912828    -0.15200
C1102       C  0.76673026  0.77042187  0.96907075     0.37200
N1103       N  0.76676630  0.80978895  0.95926626    -0.89400
H1104       H  0.69419315  0.72229614  0.96203498     0.18300
H1105       H  0.83813936  0.74033401  0.99565874     0.18300
N1106       N  0.76748278  0.65464525  0.99848840    -0.88500
H1107       H  0.73393239  0.79985799  0.95274641     0.35600
H1108       H  0.79037525  0.82077164  0.94645846     0.40700
H1109       H  0.75573988  0.62727819  0.98744038     0.40400
H1110       H  0.74495726  0.64334031  0.01167812     0.35200
C1111       C  0.51217828  0.64232788  0.89679614    -0.26500
C1112       C  0.54682705  0.64252714  0.90997179    -0.14600
C1113       C  0.59450701  0.67642757  0.90597936     0.36100
C1114       C  0.60571210  0.70945192  0.88959846    -0.25900
C1115       C  0.57088963  0.71067864  0.87740452    -0.15200
C1116       C  0.52353642  0.67592670  0.88065022     0.37200
N1117       N  0.48609443  0.67454112  0.86832213    -0.89400
H1118       H  0.47568985  0.61642669  0.89928466     0.18300
H1119       H  0.64181351  0.73675442  0.88736548     0.18300
N1120       N  0.63159087  0.67852603  0.91887582    -0.88500
H1121       H  0.46925518  0.64244911  0.86032086     0.35600
H1122       H  0.49891333  0.70011953  0.85638324     0.40700
H1123       H  0.62925231  0.69087759  0.93398095     0.40400
H1124       H  0.66435792  0.70309507  0.91276452     0.35200
C1125       C  0.31479088  0.42617343  0.88152095    -0.26500
C1126       C  0.27182874  0.38510504  0.88439833    -0.14600
C1127       C  0.26706536  0.35311190  0.90057869     0.36100
C1128       C  0.30455562  0.36462716  0.91444202    -0.25900
C1129       C  0.34664700  0.40760417  0.91280424    -0.15200
C1130       C  0.35254073  0.43770405  0.89538078     0.37200
N1131       N  0.39597025  0.48065302  0.89223781    -0.89400
H1132       H  0.31829416  0.45005921  0.86880734     0.18300
H1133       H  0.29950109  0.34063538  0.92735990     0.18300
N1134       N  0.22450628  0.30932860  0.90381584    -0.88500
H1135       H  0.39382212  0.49912131  0.87910357     0.35600
H1136       H  0.42144937  0.47187891  0.88843030     0.40700
H1137       H  0.19923443  0.30357296  0.89233614     0.40400
H1138       H  0.21073501  0.31088829  0.91868275     0.35200
C1139       C  0.78599664  0.02466019  0.00935377    -0.26500
C1140       C  0.78199975  0.98329490  0.00097916    -0.14600
C1141       C  0.73995608  0.95066501  0.99081914     0.36100
C1142       C  0.70389032  0.96127883  0.98838270    -0.25900
C1143       C  0.70869673  0.00340196  0.99615018    -0.15200
C1144       C  0.74967214  0.03468443  0.00723229     0.37200
N1145       N  0.75517134  0.07737213  0.01576995    -0.89400
H1146       H  0.81809226  0.05000440  0.01718966     0.18300
H1147       H  0.67171559  0.93642703  0.98045319     0.18300
N1148       N  0.73447508  0.90767428  0.98245568    -0.88500
H1149       H  0.78493738  0.10520969  0.00881708     0.35600
H1150       H  0.76105162  0.07780091  0.03224762     0.40700
H1151       H  0.75822923  0.91609770  0.96983631     0.40400
H1152       H  0.70109768  0.88719938  0.97589920     0.35200
C1153       C  0.21722278  0.97955368  0.99102770    -0.26500
C1154       C  0.21630872  0.01678090  0.00137801    -0.14600
C1155       C  0.25367067  0.04678071  0.01486900     0.36100
C1156       C  0.29139428  0.03897919  0.01757446    -0.25900
C1157       C  0.29279242  0.00244898  0.00677698    -0.15200
C1158       C  0.25523915  0.97222371  0.99347922     0.37200
N1159       N  0.25577774  0.93409263  0.98266362    -0.89400
H1160       H  0.18787206  0.95585121  0.98112836     0.18300
H1161       H  0.32062212  0.06253188  0.02756768     0.18300
N1162       N  0.25237444  0.08379169  0.02639308    -0.88500
H1163       H  0.22552594  0.91523298  0.97346207     0.35600
H1164       H  0.25510751  0.91117763  0.99438925     0.40700
H1165       H  0.25563931  0.10876242  0.01519150     0.40400
H1166       H  0.28126605  0.10073593  0.03657481     0.35200
C1167       C  0.27789900  0.93289977  0.89495862    -0.26500
C1168       C  0.27150534  0.89285496  0.88415972    -0.14600
C1169       C  0.30719492  0.88108963  0.88543466     0.36100
C1170       C  0.34626663  0.90736125  0.89864988    -0.25900
C1171       C  0.35120526  0.94549733  0.91079876    -0.15200
C1172       C  0.31743443  0.95963311  0.90802209     0.37200
N1173       N  0.32247364  0.00017018  0.91895844    -0.89400
H1174       H  0.25091576  0.94231622  0.89382224     0.18300
H1175       H  0.37186630  0.89618385  0.90016690     0.18300
N1176       N  0.30483096  0.84245014  0.87377574    -0.88500
H1177       H  0.29441622  0.00529869  0.91546970     0.35600
H1178       H  0.35251008  0.02925897  0.91290479     0.40700
H1179       H  0.27610391  0.82714841  0.86347947     0.40400
H1180       H  0.30060323  0.81700237  0.88491486     0.35200
C1181       C  0.59134866  0.90378486  0.91563495    -0.26500
C1182       C  0.54579999  0.89735558  0.91493316    -0.14600
C1183       C  0.51658512  0.87288167  0.89731670     0.36100
C1184       C  0.53316326  0.85453853  0.88143388    -0.25900
C1185       C  0.57797386  0.86000962  0.88273334    -0.15200
C1186       C  0.60741807  0.88525429  0.89990803     0.37200
N1187       N  0.65324454  0.89110933  0.90215613    -0.89400
H1188       H  0.61479098  0.92284440  0.92870241     0.18300
H1189       H  0.51031398  0.83404789  0.86844338     0.18300
N1190       N  0.47014812  0.86604041  0.89563773    -0.88500
H1191       H  0.67274764  0.90812685  0.88850902     0.35600
H1192       H  0.65014289  0.85809415  0.90304511     0.40700
H1193       H  0.45004384  0.84314770  0.90788639     0.40400
H1194       H  0.45448187  0.84939069  0.88124278     0.35200
C1195       C  0.86542946  0.55491741  0.12034466    -0.26500
C1196       C  0.87435063  0.60074912  0.11711840    -0.14600
C1197       C  0.90284705  0.62684293  0.09970732     0.36100
C1198       C  0.92048330  0.60623334  0.08575470    -0.25900
C1199       C  0.91043633  0.55965811  0.08830524    -0.15200
C1200       C  0.88317515  0.53419989  0.10630577     0.37200
N1201       N  0.87229502  0.48729810  0.11071586    -0.89400
H1202       H  0.84271304  0.53430562  0.13337968     0.18300
H1203       H  0.94161864  0.62711281  0.07239918     0.18300
N1204       N  0.91357365  0.67390688  0.09524687    -0.88500
H1205       H  0.90358434  0.48688823  0.11238151     0.35600
H1206       H  0.85322867  0.46596214  0.09788209     0.40700
H1207       H  0.90047783  0.68676563  0.10698803     0.40400
H1208       H  0.89715798  0.67337271  0.08085309     0.35200
C1209       C  0.70035851  0.63214904  0.08254035    -0.26500
C1210       C  0.65897253  0.58837634  0.08377952    -0.14600
C1211       C  0.65370250  0.55777249  0.10091328     0.36100
C1212       C  0.69109536  0.57018282  0.11513303    -0.25900
C1213       C  0.73309576  0.61244177  0.11283873    -0.15200
C1214       C  0.73759812  0.64424881  0.09676442     0.31800
N1215       N  0.78053551  0.68810761  0.09458672    -0.89400
H1216       H  0.70485045  0.65614252  0.06972081     0.18300
H1217       H  0.68810251  0.54619512  0.12769337     0.18300
N1218       N  0.61140414  0.51345715  0.10339269    -0.88500
H1219       H  0.77804569  0.70778971  0.08208223     0.35600
H1220       H  0.80683824  0.68086388  0.09024674     0.40700
H1221       H  0.58466273  0.52029123  0.10739777     0.40400
H1222       H  0.61420619  0.49465089  0.11621284     0.35200
C1223       C  0.59940740  0.02874970  0.32719281    -0.26500
C1224       C  0.63503074  0.02309651  0.31818543    -0.14600
C1225       C  0.67467725  0.06202738  0.30922434     0.36100
C1226       C  0.67861908  0.10623686  0.31008172    -0.25900
C1227       C  0.64412582  0.11279396  0.31996842    -0.15200
C1228       C  0.60291562  0.07297655  0.32781991     0.37200
N1229       N  0.56541723  0.07747049  0.33702699    -0.89400
H1230       H  0.56906165  0.99863017  0.33400199     0.18300
H1231       H  0.70996860  0.13608472  0.30380416     0.18300
N1232       N  0.71216403  0.05700964  0.30037383    -0.88500
H1233       H  0.53899938  0.04530623  0.34286639     0.35600
H1234       H  0.55033005  0.08680018  0.32466842     0.40700
H1235       H  0.72707021  0.04783005  0.31286756     0.40400
H1236       H  0.73865038  0.08886678  0.29429781     0.35200
C1237       C  0.66853677  0.56470866  0.36326075    -0.26500
C1238       C  0.69335802  0.55481792  0.34791499    -0.14600
C1239       C  0.72333230  0.59053001  0.33345135     0.36100
C1240       C  0.72589213  0.63428017  0.33411334    -0.25900
C1241       C  0.70009577  0.64371639  0.34911021    -0.15200
C1242       C  0.67175419  0.60863830  0.36405483     0.37200
N1243       N  0.64396352  0.61638479  0.37931919    -0.89400
H1244       H  0.64543445  0.53774658  0.37438229     0.18300
H1245       H  0.74739136  0.66087647  0.32251000     0.18300
N1246       N  0.74894592  0.58159909  0.31728466    -0.88500
H1247       H  0.65317529  0.61101121  0.39463813     0.35600
H1248       H  0.60881826  0.59140301  0.37676386     0.40700
H1249       H  0.77574774  0.57920772  0.32500001     0.40400
H1250       H  0.76554294  0.60991703  0.30675754     0.35200
C1251       C  0.58684395  0.97695834  0.44003816    -0.26500
C1252       C  0.55818441  0.94177191  0.45454422    -0.14600
C1253       C  0.55927989  0.89964175  0.45484561     0.36100
C1254       C  0.58528783  0.89196207  0.43925035    -0.25900
C1255       C  0.60959903  0.92485998  0.42289624    -0.15200
C1256       C  0.61233176  0.96913947  0.42423438     0.37200
N1257       N  0.63878328  0.00629132  0.40939039    -0.89400
H1258       H  0.58635705  0.00950537  0.43985271     0.18300
H1259       H  0.58366815  0.85840760  0.43919525     0.18300
N1260       N  0.53296209  0.86318382  0.47014385    -0.88500
H1261       H  0.62387742  0.99649878  0.39416887     0.35600
H1262       H  0.67321740  0.01288473  0.40906691     0.40700
H1263       H  0.51640189  0.87340981  0.48138397     0.40400
H1264       H  0.50675338  0.83463182  0.46180406     0.35200
C1265       C  0.58529643  0.65022485  0.42063074    -0.26500
C1266       C  0.58038716  0.68976242  0.42355265    -0.14600
C1267       C  0.55889735  0.69318759  0.44258067     0.36100
C1268       C  0.54041175  0.65575629  0.45735927    -0.25900
C1269       C  0.54423816  0.61583948  0.45382757    -0.15200
C1270       C  0.56795751  0.61368857  0.43542679     0.37200
N1271       N  0.57287913  0.57382008  0.43060316    -0.89400
H1272       H  0.60192415  0.64686229  0.40635024     0.18300
H1273       H  0.52129990  0.65681689  0.47126695     0.18300
N1274       N  0.55513121  0.73394042  0.44671626    -0.88500
H1275       H  0.54964286  0.55540314  0.41818094     0.35600
H1276       H  0.56393337  0.55111321  0.44361920     0.40700
H1277       H  0.58905001  0.76211850  0.44881180     0.40400
H1278       H  0.53743110  0.73025784  0.46113065     0.35200
C1279       C  0.75996055  0.78193180  0.23086859    -0.26500
C1280       C  0.73094047  0.74674881  0.24555106    -0.14600
C1281       C  0.72710380  0.70233880  0.24382202     0.36100
C1282       C  0.75450812  0.69515756  0.22878280    -0.25900
C1283       C  0.78605888  0.73146914  0.21543781    -0.15200
C1284       C  0.78766431  0.77497191  0.21594029     0.37200
N1285       N  0.81814347  0.81331289  0.20223188    -0.89400
H1286       H  0.76338406  0.81625023  0.23170456     0.18300
H1287       H  0.75284924  0.66158256  0.22825700     0.18300
N1288       N  0.69667614  0.66477839  0.25772316    -0.88500
H1289       H  0.79706899  0.82132437  0.19271599     0.35600
H1290       H  0.83666319  0.80403168  0.19168383     0.40700
H1291       H  0.71692768  0.65411810  0.26627123     0.40400
H1292       H  0.67313149  0.63676740  0.24821626     0.35200
C1293       C  0.39603258  0.05727009  0.36345020    -0.26500
C1294       C  0.36242958  0.05358914  0.34849277    -0.14600
C1295       C  0.37339043  0.09173687  0.33492125     0.36100
C1296       C  0.41755926  0.13219844  0.33622683    -0.25900
C1297       C  0.45199561  0.13502131  0.35039966    -0.15200
C1298       C  0.44086579  0.09730867  0.36436790     0.37200
N1299       N  0.47526177  0.09940806  0.37911962    -0.89400
H1300       H  0.38810048  0.02788427  0.37380620     0.18300
H1301       H  0.42567142  0.16071351  0.32526492     0.18300
N1302       N  0.34007284  0.08937295  0.31956624    -0.88500
H1303       H  0.46165644  0.06855211  0.38805790     0.35600
H1304       H  0.48273563  0.12629437  0.38999353     0.40700
H1305       H  0.35503660  0.09436654  0.30432254     0.40400
H1306       H  0.33393762  0.11694896  0.32258593     0.35200
C1307       C  0.94466486  0.60306843  0.30153543    -0.26500
C1308       C  0.97768278  0.61082656  0.31758206    -0.14600
C1309       C  0.96645418  0.57617724  0.33337828     0.36100
C1310       C  0.92163833  0.53624939  0.33355288    -0.25900
C1311       C  0.88741540  0.53040525  0.31853425    -0.15200
C1312       C  0.89967947  0.56372774  0.30199414     0.37200
N1313       N  0.86736369  0.55869850  0.28549481    -0.89400
H1314       H  0.95274422  0.62919912  0.28927373     0.18300
H1315       H  0.91267147  0.51057769  0.34616240     0.18300
N1316       N  0.00005418  0.58223525  0.34953600    -0.88500
H1317       H  0.83920617  0.55998209  0.29239242     0.35600
H1318       H  0.85500146  0.52612925  0.27819471     0.40700
H1319       H  0.02821547  0.58231635  0.34182928     0.40400
H1320       H  0.98602079  0.55392760  0.36014730     0.35200
C1321       C  0.11278555  0.67137284  0.43182890    -0.26500
C1322       C  0.07946495  0.67426266  0.41881946    -0.14600
C1323       C  0.03180519  0.63920228  0.42100684     0.36100
C1324       C  0.01902056  0.60139894  0.43506060    -0.25900
C1325       C  0.05282094  0.59738794  0.44692020    -0.15200
C1326       C  0.09999236  0.63311839  0.44564412     0.37200
N1327       N  0.13494699  0.62930430  0.45773004    -0.89400
H1328       H  0.14944007  0.69764555  0.43037526     0.18300
H1329       H  0.98269117  0.57392026  0.43600715     0.18300
N1330       N  0.99627561  0.64092074  0.40857120    -0.88500
H1331       H  0.16815135  0.65804605  0.45480487     0.35600
H1332       H  0.12784272  0.63047168  0.47397365     0.40700
H1333       H  0.97166824  0.64095763  0.41911264     0.40400
H1334       H  0.97943957  0.61047306  0.39933973     0.35200
C1335       C  0.36553341  0.92144367  0.41312400    -0.26500
C1336       C  0.32300811  0.88027746  0.41759046    -0.14600
C1337       C  0.31859762  0.85681825  0.43715002     0.36100
C1338       C  0.35670521  0.87421522  0.45145553    -0.25900
C1339       C  0.39903264  0.91507243  0.44672106    -0.15200
C1340       C  0.40329566  0.93909269  0.42747134     0.37200
N1341       N  0.44628437  0.98127161  0.42253388    -0.89400
H1342       H  0.36951386  0.94013384  0.39829623     0.18300
H1343       H  0.35330898  0.85572099  0.46628478     0.18300
N1344       N  0.27534212  0.81603931  0.44280972    -0.88500
H1345       H  0.44405670  0.99447619  0.40763420     0.35600
H1346       H  0.45078006  0.00634696  0.43393659     0.40700
H1347       H  0.26374346  0.82274134  0.45725888     0.40400
H1348       H  0.28191800  0.78861219  0.44538140     0.35200
C1349       C  0.95349143  0.71814642  0.22474963    -0.26500
C1350       C  0.94301691  0.74957775  0.21464246    -0.14600
C1351       C  0.97204223  0.79820490  0.21873424     0.36100
C1352       C  0.00850957  0.81349125  0.23379639    -0.25900
C1353       C  0.01768444  0.78176036  0.24464909    -0.15200
C1354       C  0.99076515  0.73365139  0.23927549     0.37200
N1355       N  0.00094231  0.70006710  0.24850899    -0.89400
H1356       H  0.93157598  0.68095457  0.22188873     0.18300
H1357       H  0.02923800  0.85050599  0.23729468     0.18300
N1358       N  0.96498977  0.83297932  0.20828082    -0.88500
H1359       H  0.00827587  0.68354233  0.23605664     0.35600
H1360       H  0.97091075  0.67482202  0.25641045     0.40700
H1361       H  0.93898246  0.81817134  0.19660336     0.40400
H1362       H  0.99580036  0.85540174  0.20001702     0.35200
C1363       C  0.90280777  0.34770784  0.10312782    -0.26500
C1364       C  0.93427117  0.34553894  0.08847410    -0.14600
C1365       C  0.94269689  0.30742026  0.09027230     0.36100
C1366       C  0.91769810  0.27191130  0.10527296    -0.25900
C1367       C  0.88365483  0.27248885  0.11843481    -0.15200
C1368       C  0.87717817  0.31141034  0.11790089     0.37200
N1369       N  0.84326601  0.31295721  0.13180713    -0.89400
H1370       H  0.89606423  0.37653064  0.10232215     0.18300
H1371       H  0.92287811  0.24203300  0.10575397     0.18300
N1372       N  0.97521098  0.30261950  0.07681521    -0.88500
H1373       H  0.84232119  0.34375603  0.12935648     0.35600
H1374       H  0.85447163  0.31408007  0.14757024     0.40700
H1375       H  0.00779964  0.33321226  0.07776265     0.40400
H1376       H  0.96312286  0.29691994  0.06103528     0.35200
C1377       C  0.65884425  0.11398750  0.10071081    -0.26500
C1378       C  0.65499470  0.07592936  0.08881733    -0.14600
C1379       C  0.68863840  0.06206444  0.09221529     0.36100
C1380       C  0.72622169  0.08761088  0.10623650    -0.25900
C1381       C  0.73122651  0.12691858  0.11715988    -0.15200
C1382       C  0.69673281  0.13975431  0.11469690     0.37200
N1383       N  0.70120396  0.17981816  0.12587028    -0.89400
H1384       H  0.63358739  0.12533377  0.09829558     0.18300
H1385       H  0.75268177  0.07762524  0.10803449     0.18300
N1386       N  0.68564116  0.02277553  0.08108292    -0.88500
H1387       H  0.69885281  0.17255493  0.14227193     0.35600
H1388       H  0.67330162  0.18504084  0.12213830     0.40700
H1389       H  0.68415210  0.99887652  0.09247378     0.40400
H1390       H  0.71631025  0.03438580  0.07213737     0.35200
C1391       C  0.76133052  0.03964699  0.22198249    -0.26500
C1392       C  0.80010860  0.04324230  0.21115808    -0.14600
C1393       C  0.81360583  0.00961519  0.21485827     0.36100
C1394       C  0.79000643  0.97494057  0.23047180    -0.25900
C1395       C  0.75304582  0.97309679  0.24252684    -0.15200
C1396       C  0.73744705  0.00500406  0.23738228     0.37200
N1397       N  0.69795431  0.00385723  0.24751634    -0.89400
H1398       H  0.75098265  0.06558934  0.21925850     0.18300
H1399       H  0.80174975  0.95027967  0.23370188     0.18300
N1400       N  0.85256605  0.01218530  0.20334784    -0.88500
H1401       H  0.70512075  0.01147663  0.26376224     0.35600
H1402       H  0.66874570  0.97053834  0.24562145     0.40700
H1403       H  0.84347171  0.00678139  0.18713325     0.40400
H1404       H  0.85843159  0.98521040  0.20806053     0.35200
C1405       C  0.40070518  0.30097570  0.11343774    -0.26500
C1406       C  0.43618801  0.29901544  0.12479814    -0.14600
C1407       C  0.48357452  0.33171417  0.12003213     0.36100
C1408       C  0.49408624  0.36260483  0.10280543    -0.25900
C1409       C  0.45851172  0.36219868  0.09031715    -0.15200
C1410       C  0.41127695  0.33226908  0.09640594     0.37200
N1411       N  0.37367589  0.33266256  0.08515450    -0.89400
H1412       H  0.36435711  0.27587747  0.11686747     0.18300
H1413       H  0.53050746  0.38617085  0.09884163     0.18300
N1414       N  0.52176546  0.33297963  0.13167260    -0.88500
H1415       H  0.35445328  0.34018040  0.09615243     0.35600
H1416       H  0.35170347  0.29915568  0.07904457     0.40700
H1417       H  0.50967309  0.30992488  0.14464341     0.40400
H1418       H  0.54132684  0.36637468  0.13830925     0.35200
C1419       C  0.48841921  0.13596856  0.10380290    -0.26500
C1420       C  0.45964091  0.11736589  0.08563189    -0.14600
C1421       C  0.41547693  0.11493304  0.08542181     0.36100
C1422       C  0.40173991  0.13131032  0.10310176    -0.25900
C1423       C  0.43126836  0.15134018  0.12072374    -0.15200
C1424       C  0.47486976  0.15312512  0.12129434     0.37200
N1425       N  0.50667569  0.17323480  0.13899807    -0.89400
H1426       H  0.52189706  0.13740339  0.10447517     0.18300
H1427       H  0.36898013  0.13143038  0.10254314     0.18300
N1428       N  0.38511553  0.09717812  0.06709854    -0.88500
H1429       H  0.51141934  0.14687408  0.14564220     0.35600
H1430       H  0.49238190  0.18393569  0.15115008     0.40700
H1431       H  0.40161217  0.12055008  0.05445214     0.40400
H1432       H  0.35362951  0.09665451  0.06988758     0.35200
C1433       C  0.31951975  0.06735401  0.23089283    -0.26500
C1434       C  0.28662704  0.07013730  0.21777552    -0.14600
C1435       C  0.24009818  0.03217288  0.21739032     0.36100
C1436       C  0.22697422  0.99410622  0.23130718    -0.25900
C1437       C  0.25904847  0.99279028  0.24575887    -0.15200
C1438       C  0.30655713  0.02907465  0.24469186     0.37200
N1439       N  0.34134075  0.02790835  0.25808896    -0.89400
H1440       H  0.35525751  0.09626009  0.23097923     0.18300
H1441       H  0.19068392  0.96642769  0.23147846     0.18300
N1442       N  0.20516930  0.03126642  0.20334899    -0.88500
H1443       H  0.37411016  0.05768658  0.25570608     0.35600
H1444       H  0.34450295  0.99934090  0.25324850     0.40700
H1445       H  0.21916341  0.06019190  0.19315065     0.40400
H1446       H  0.17997366  0.03294192  0.21285939     0.35200
C1447       C  0.38177757  0.30612327  0.32066795    -0.26500
C1448       C  0.37409139  0.33025996  0.33724555    -0.14600
C1449       C  0.41273503  0.36355056  0.34926508     0.36100
C1450       C  0.45738267  0.36984344  0.34543121    -0.25900
C1451       C  0.46441570  0.34354498  0.32977039    -0.15200
C1452       C  0.42647011  0.31249038  0.31675364     0.37200
N1453       N  0.43336567  0.28707656  0.29980240    -0.89400
H1454       H  0.35269958  0.28174315  0.31082839     0.18300
H1455       H  0.48623202  0.39388552  0.35547977     0.18300
N1456       N  0.40705188  0.39142589  0.36525080    -0.88500
H1457       H  0.45585773  0.31150573  0.28856735     0.35600
H1458       H  0.40188636  0.26549489  0.29184355     0.40700
H1459       H  0.42859702  0.42661486  0.36119791     0.40400
H1460       H  0.41858128  0.38557101  0.37990240     0.35200
C1461       C  0.88215464  0.30191720  0.32136181    -0.26500
C1462       C  0.87496380  0.32445935  0.33875737    -0.14600
C1463       C  0.91268115  0.35270316  0.35235377     0.36100
C1464       C  0.95692316  0.35855380  0.34819252    -0.25900
C1465       C  0.96468962  0.33694249  0.33050708    -0.15200
C1466       C  0.92654987  0.30777609  0.31702885     0.37200
N1467       N  0.93268506  0.28403879  0.29908826    -0.89400
H1468       H  0.85334475  0.28092600  0.31063289     0.18300
H1469       H  0.98539256  0.38032905  0.35893808     0.18300
N1470       N  0.90618732  0.37553697  0.37044720    -0.88500
H1471       H  0.90162793  0.26577983  0.29036009     0.35600
H1472       H  0.93991740  0.25887773  0.30517821     0.40700
H1473       H  0.92890972  0.41152489  0.36880763     0.40400
H1474       H  0.91581659  0.36443279  0.38422588     0.35200
C1475       C  0.03358000  0.38317246  0.42270880    -0.26500
C1476       C  0.08107430  0.39509715  0.42256976    -0.14600
C1477       C  0.11260525  0.43183244  0.43628584     0.36100
C1478       C  0.09680117  0.45687188  0.44840288    -0.25900
C1479       C  0.05033817  0.44676253  0.44726373    -0.15200
C1480       C  0.01805144  0.40885731  0.43474182     0.37200
N1481       N  0.96991765  0.39733108  0.43393078    -0.89400
H1482       H  0.00872274  0.35511615  0.41255337     0.18300
H1483       H  0.12151470  0.48575536  0.45824854     0.18300
N1484       N  0.16127942  0.44623173  0.43768832    -0.88500
H1485       H  0.95052465  0.36825019  0.42411523     0.35600
H1486       H  0.96887060  0.42535541  0.42674374     0.40700
H1487       H  0.17696215  0.45842068  0.42272827     0.40400
H1488       H  0.16446798  0.41759429  0.44234893     0.35200
C1489       C  0.36037607  0.48052830  0.45246152    -0.26500
C1490       C  0.39675682  0.47033711  0.45086189    -0.14600
C1491       C  0.39536007  0.44031392  0.43440999     0.36100
C1492       C  0.35816775  0.42200077  0.41990825    -0.25900
C1493       C  0.32234509  0.43336627  0.42083236    -0.15200
C1494       C  0.32287155  0.46202981  0.43780754     0.37200
N1495       N  0.28630114  0.47329684  0.43991123    -0.89400
H1496       H  0.36206541  0.50421435  0.46489172     0.18300
H1497       H  0.35818810  0.39925494  0.40741661     0.18300
N1498       N  0.43157106  0.42870460  0.43137690    -0.88500
H1499       H  0.29352010  0.49678925  0.45251076     0.35600
H1500       H  0.25577389  0.44259117  0.44424626     0.40700
H1501       H  0.45791144  0.44412714  0.44284312     0.40400
H1502       H  0.44738180  0.44228310  0.41655894     0.35200
C1503       C  0.98053827  0.23749767  0.24619734    -0.26500
C1504       C  0.01645306  0.22624554  0.24712593    -0.14600
C1505       C  0.01835959  0.19736733  0.23071633     0.36100
C1506       C  0.98370200  0.17904669  0.21487299    -0.25900
C1507       C  0.94733911  0.18922296  0.21460618    -0.15200
C1508       C  0.94597997  0.21913996  0.23024364     0.37200
N1509       N  0.90855360  0.22949979  0.23026296    -0.89400
H1510       H  0.97863934  0.26009113  0.25823011     0.18300
H1511       H  0.98418257  0.15525413  0.20305947     0.18300
N1512       N  0.05429056  0.18523519  0.22971357    -0.88500
H1513       H  0.91289178  0.25251791  0.24269749     0.35600
H1514       H  0.87738331  0.19841998  0.23344265     0.40700
H1515       H  0.05363419  0.16787296  0.24381793     0.40400
H1516       H  0.08665463  0.21584414  0.22809504     0.35200
C1517       C  0.24038241  0.20740316  0.22025403    -0.26500
C1518       C  0.28767523  0.21986898  0.22051909    -0.14600
C1519       C  0.31953924  0.25829664  0.23320619     0.36100
C1520       C  0.30290952  0.28241708  0.24549876    -0.25900
C1521       C  0.25499124  0.26819638  0.24634061    -0.15200
C1522       C  0.22369299  0.23084064  0.23305682     0.37200
N1523       N  0.17457200  0.21487341  0.23321483    -0.89400
H1524       H  0.21584157  0.17802721  0.21059345     0.18300
H1525       H  0.32761127  0.31090673  0.25552133     0.18300
N1526       N  0.36848338  0.27289532  0.23472138    -0.88500
H1527       H  0.15675112  0.17976468  0.23790427     0.35600
H1528       H  0.16441805  0.21679983  0.21756588     0.40700
H1529       H  0.37710494  0.25176434  0.22570162     0.40400
H1530       H  0.37542484  0.26879169  0.25066898     0.35200
loop_ 
_geom_bond_atom_site_label_1 
_geom_bond_atom_site_label_2 
_geom_bond_distance 
_geom_bond_site_symmetry_2 
_ccdc_geom_bond_type 
O1           Mg3   2.160       .  S
O1           Mg9   2.151       .  S
O1           C36   1.232       .  S
C2           O15   1.234       .  S
C2           O39   1.268       .  A
C2           H41   1.081       .  S
Mg3          O32   2.141       .  S
Mg3          O47   2.270       .  S
Mg3          O43   2.252       .  S
Mg3          O14   2.303       .  S
O4          Mg46   2.147       .  S
O4          Mg29   2.143       .  S
O4           C25   1.236       .  S
O5           C36   1.267       .  A
O5          Mg29   2.300       .  S
C6            O8   1.274       .  A
C6           O20   1.273       .  A
C6         C1493   1.494       .  S
O7           C35   1.273       .  A
O7           Mg9   2.316       .  S
O8          Mg40   2.290       .  S
Mg9          O15   2.134       .  S
Mg9          O23   2.256       .  S
Mg9          O11   2.300       .  S
C10          O48   1.268       .  A
C10          O16   1.267       .  A
C10        C1448   1.482       .  S
O11          C18   1.276       .  A
H12          C25   1.081       .  S
C13          O27   1.233       .  S
C13          O28   1.268       .  A
C13          H38   1.081       .  S
O14          C37   1.270       .  A
O15         Mg29   2.167       .  S
O16         Mg46   2.270       .  S
C17          O30   1.269       .  A
C17          O22   1.274       .  A
C17        C1521   1.491       .  S
C18          O45   1.271       .  A
C18        C1504   1.496       .  S
Mg19         O26   2.146       .  S
Mg19         O27   2.142       .  S
Mg19         O20   2.275       .  S
Mg19         O21   2.311       .  S
Mg19         O48   2.265       .  S
O21          C25   1.272       .  A
O22         Mg29   2.307       .  S
O23          C42   1.268       .  A
O24          C44   1.275       .  A
O24         Mg40   2.323       .  S
O26         Mg40   2.166       .  S
O26          C37   1.236       .  S
O27         Mg46   2.159       .  S
O28         Mg40   2.306       .  S
Mg29         O45   2.266       .  S
O30         Mg46   2.243       .  S
H31          C36   1.081       .  S
O32         Mg40   2.154       .  S
O32          C35   1.237       .  S
H33          C35   1.081       .  S
H34          C37   1.081       .  S
O39         Mg46   2.293       .  S
C42          O47   1.269       .  A
C42        C1465   1.482   1_455  S
O43          C44   1.270       .  A
C44        C1476   1.499       .  S
C49        C1518   1.487       .  S
C49          C50   1.402       .  A
C49          C54   1.415       .  A
C50          H69   1.085       .  S
C50          C51   1.402       .  A
C51        C1434   1.491       .  S
C51          C52   1.416       .  A
C52          C53   1.422       .  A
C52          C59   1.407       .  A
C53          C54   1.418       .  A
C53          C58   1.420       .  A
C54          C55   1.408       .  A
C55          H65   1.082       .  S
C55          C56   1.393       .  A
C56          H66   1.083       .  S
C56          C57   1.403       .  A
C57          C58   1.422       .  A
C57          C64   1.415       .  A
C58          C61   1.419       .  A
C59          H67   1.082       .  S
C59          C60   1.395       .  A
C60          H68   1.083       .  S
C60          C61   1.404       .  A
C61          C62   1.411       .  A
C62        C1423   1.474       .  S
C62          C63   1.390       .  A
C63          H70   1.086       .  S
C63          C64   1.392       .  A
C64        C1406   1.482       .  S
C71        C1392   1.483       .  S
C71          C72   1.395       .  A
C71          C76   1.416       .  A
C72          H91   1.086       .  S
C72          C73   1.393       .  A
C73        C1507   1.480       .  S
C73          C74   1.415       .  A
C74          C75   1.421       .  A
C74          C81   1.404       .  A
C75          C76   1.421       .  A
C75          C80   1.422       .  A
C76          C77   1.404       .  A
C77          H87   1.082       .  S
C77          C78   1.392       .  A
C78          H88   1.082       .  S
C78          C79   1.407       .  A
C79          C80   1.421       .  A
C79          C86   1.417       .  A
C80          C83   1.420       .  A
C81          H89   1.083       .  S
C81          C82   1.396       .  A
C82          H90   1.083       .  S
C82          C83   1.407       .  A
C83          C84   1.416       .  A
C84        C1367   1.488       .  S
C84          C85   1.402       .  A
C85          H92   1.085       .  S
C85          C86   1.402       .  A
C86        C1381   1.492       .  S
O93         Mg95   2.164       .  S
O93        Mg101   2.153       .  S
O93         C128   1.235       .  S
C94         O107   1.234       .  S
C94         O131   1.268       .  A
C94         H133   1.081       .  S
Mg95        O124   2.164       .  S
Mg95        O139   2.315       .  S
Mg95        O135   2.262       .  S
Mg95        O106   2.295       .  S
O96        Mg138   2.159       .  S
O96        Mg121   2.150       .  S
O96         C117   1.236       .  S
O97         C128   1.270       .  A
O97        Mg121   2.306       .  S
C98         O100   1.279       .  A
C98         O112   1.271       .  A
C98        C1353   1.497       .  S
O99         C127   1.273       .  A
O99        Mg101   2.310       .  S
O100       Mg132   2.323       .  S
Mg101       O107   2.138       .  S
Mg101       O115   2.246       .  S
Mg101       O103   2.283       .  S
C102        O140   1.270       .  A
C102        O108   1.273       .  A
C102       C1308   1.484   1_455  S
O103        C110   1.273       .  A
H104        C117   1.081       .  S
C105        O119   1.235       .  S
C105        O120   1.270       .  A
C105        H130   1.081       .  S
O106        C129   1.268       .  A
O107       Mg121   2.165       .  S
O108       Mg138   2.292       .  S
C109        O122   1.273       .  A
C109        O114   1.280       .  A
C109       C1322   1.497       .  S
C110        O137   1.276       .  A
C110       C1336   1.493       .  S
Mg111       O118   2.146       .  S
Mg111       O119   2.163       .  S
Mg111       O112   2.275       .  S
Mg111       O113   2.297       .  S
Mg111       O140   2.262       .  S
O113        C117   1.270       .  A
O114       Mg121   2.329       .  S
O115        C134   1.268   1_565  A
O116        C136   1.282       .  A
O116       Mg132   2.347       .  S
O118       Mg132   2.166       .  S
O118        C129   1.233       .  S
O119       Mg138   2.163       .  S
O120       Mg132   2.305       .  S
Mg121       O137   2.305       .  S
O122       Mg138   2.268       .  S
H123        C128   1.081       .  S
O124       Mg132   2.171       .  S
O124        C127   1.237       .  S
H125        C127   1.081       .  S
H126        C129   1.081       .  S
O131       Mg138   2.293       .  S
C134        O139   1.275   1_545  A
C134       C1294   1.484       .  S
O135        C136   1.273       .  A
C136       C1437   1.501       .  S
O141       Mg143   2.162       .  S
O141       Mg149   2.160       .  S
O141        C176   1.236       .  S
C142        O155   1.235       .  S
C142        O179   1.269       .  A
C142        H181   1.081       .  S
Mg143       O172   2.150       .  S
Mg143       O187   2.312       .  S
Mg143       O183   2.276       .  S
Mg143       O154   2.302       .  S
O144       Mg186   2.152       .  S
O144       Mg169   2.151       .  S
O144        C165   1.236       .  S
O145        C176   1.271       .  A
O145       Mg169   2.307       .  S
C146        O148   1.272       .  A
C146        O160   1.270       .  A
C146       C1395   1.491       .  S
O147        C175   1.269       .  A
O147       Mg149   2.300       .  S
O148       Mg180   2.267       .  S
Mg149       O155   2.143       .  S
Mg149       O163   2.250       .  S
Mg149       O151   2.263       .  S
C150        O188   1.269       .  A
C150        O156   1.275       .  A
C150       C1224   1.473   1_565  S
O151        C158   1.271       .  A
H152        C165   1.081       .  S
C153        O167   1.235       .  S
C153        O168   1.269       .  A
C153        H178   1.081       .  S
O154        C177   1.269       .  A
O155       Mg169   2.165       .  S
O156       Mg186   2.317       .  S
C157        O170   1.273       .  A
C157        O162   1.277       .  A
C157       C1255   1.499       .  S
C158        O185   1.274       .  A
C158       C1266   1.493       .  S
Mg159       O166   2.142       .  S
Mg159       O167   2.152       .  S
Mg159       O160   2.284       .  S
Mg159       O161   2.303       .  S
Mg159       O188   2.244       .  S
O161        C165   1.271       .  A
O162       Mg169   2.313       .  S
O163        C182   1.268       .  A
O164        C184   1.274       .  A
O164       Mg180   2.297       .  S
O166       Mg180   2.162       .  S
O166        C177   1.234       .  S
O167       Mg186   2.156       .  S
O168       Mg180   2.299       .  S
Mg169       O185   2.300       .  S
O170       Mg186   2.274       .  S
H171        C176   1.081       .  S
O172       Mg180   2.145       .  S
O172        C175   1.235       .  S
H173        C175   1.081       .  S
H174        C177   1.081       .  S
O179       Mg186   2.298       .  S
C182        O187   1.276       .  A
C182       C1241   1.485       .  S
O183        C184   1.274       .  A
C184       C1280   1.492       .  S
C189       C1283   1.483       .  S
C189        C190   1.396       .  A
C189        C194   1.409       .  A
C190        H209   1.085       .  S
C190        C191   1.402       .  A
C191       C1350   1.494       .  S
C191        C192   1.425       .  A
C192        C193   1.423       .  A
C192        C199   1.409       .  A
C193        C194   1.420       .  A
C193        C198   1.422       .  A
C194        C195   1.404       .  A
C195        H205   1.083       .  S
C195        C196   1.390       .  A
C196        H206   1.083       .  S
C196        C197   1.404       .  A
C197        C198   1.420       .  A
C197        C204   1.409       .  A
C198        C201   1.422       .  A
C199        H207   1.081       .  S
C199        C200   1.402       .  A
C200        H208   1.083       .  S
C200        C201   1.406       .  A
C201        C202   1.422       .  A
C202       C1196   1.487       .  S
C202        C203   1.398       .  A
C203        H210   1.086       .  S
C203        C204   1.394       .  A
C204       C1213   1.478       .  S
O211       Mg213   2.163   1_554  S
O211       Mg219   2.160       .  S
O211        C246   1.234       .  S
C212        O225   1.234   1_565  S
C212        O249   1.268       .  A
C212        H251   1.081       .  S
Mg213       O242   2.150   1_545  S
Mg213       O257   2.271   1_545  S
Mg213       O253   2.274   1_545  S
Mg213       O224   2.300       .  S
O214       Mg256   2.150   1_545  S
O214       Mg239   2.147       .  S
O214        C235   1.236       .  S
O215        C246   1.269       .  A
O215       Mg239   2.301       .  S
C216        O218   1.272       .  A
C216        O230   1.274       .  A
C216       C1182   1.492       .  S
O217        C245   1.270   1_554  A
O217       Mg219   2.299   1_565  S
O218       Mg250   2.268       .  S
Mg219       O225   2.141       .  S
Mg219       O233   2.254       .  S
Mg219       O221   2.271       .  S
C220        O258   1.270   1_545  A
C220        O226   1.269   1_556  A
C220       C1143   1.479       .  S
O221        C228   1.271       .  A
H222        C235   1.081       .  S
C223        O237   1.234       .  S
C223        O238   1.271       .  A
C223        H248   1.081   1_556  S
O224        C247   1.269       .  A
O225       Mg239   2.168       .  S
O226       Mg256   2.287   1_545  S
C227        O240   1.272       .  A
C227        O232   1.276       .  A
C227       C1378   1.495       .  S
C228        O255   1.273       .  A
C228       C1420   1.489       .  S
Mg229       O236   2.162       .  S
Mg229       O237   2.142   1_545  S
Mg229       O230   2.287   1_545  S
Mg229       O231   2.315       .  S
Mg229       O258   2.273   1_545  S
O231        C235   1.272   1_556  A
O232       Mg239   2.314       .  S
O233        C252   1.269       .  A
O234        C254   1.280       .  A
O234       Mg250   2.339       .  S
O236       Mg250   2.169   1_545  S
O236        C247   1.234       .  S
O237       Mg256   2.175   1_556  S
O238       Mg250   2.315       .  S
Mg239       O255   2.274       .  S
O240       Mg256   2.266   1_545  S
H241        C246   1.081   1_556  S
O242       Mg250   2.138       .  S
O242        C245   1.235       .  S
H243        C245   1.081       .  S
H244        C247   1.081       .  S
O249       Mg256   2.294       .  S
C252        O257   1.270   1_544  A
C252       C1157   1.470       .  S
O253        C254   1.272       .  A
C254       C1171   1.504       .  S
O259       Mg261   2.140   1_556  S
O259       Mg267   2.155       .  S
O259        C294   1.235       .  S
C260        O273   1.235       .  S
C260        O297   1.269       .  A
C260        H299   1.081       .  S
Mg261       O290   2.152       .  S
Mg261       O305   2.314       .  S
Mg261       O301   2.258       .  S
Mg261       O272   2.304       .  S
O262       Mg304   2.156       .  S
O262       Mg287   2.151       .  S
O262        C283   1.234       .  S
O263        C294   1.269       .  A
O263       Mg287   2.295       .  S
C264        O266   1.271       .  A
C264        O278   1.270       .  A
C264       C1409   1.487       .  S
O265        C293   1.269   1_556  A
O265       Mg267   2.301       .  S
O266       Mg298   2.267       .  S
Mg267       O273   2.138       .  S
Mg267       O281   2.251       .  S
Mg267       O269   2.261       .  S
C268        O306   1.270       .  A
C268        O274   1.278   1_554  A
C268       C1084   1.479       .  S
O269        C276   1.268       .  A
H270        C283   1.081       .  S
C271        O285   1.235       .  S
C271        O286   1.270       .  A
C271        H296   1.081   1_554  S
O272        C295   1.270       .  A
O273       Mg287   2.166       .  S
O274       Mg304   2.333       .  S
C275        O288   1.275       .  A
C275        O280   1.274       .  A
C275       C1129   1.490       .  S
C276        O303   1.274       .  A
C276       C1112   1.495       .  S
Mg277       O284   2.151       .  S
Mg277       O285   2.157       .  S
Mg277       O278   2.273       .  S
Mg277       O279   2.295       .  S
Mg277       O306   2.257       .  S
O279        C283   1.268   1_554  A
O280       Mg287   2.289       .  S
O281        C300   1.269       .  A
O282        C302   1.272       .  A
O282       Mg298   2.292       .  S
O284       Mg298   2.160       .  S
O284        C295   1.235       .  S
O285       Mg304   2.148   1_554  S
O286       Mg298   2.301       .  S
Mg287       O303   2.296       .  S
O288       Mg304   2.265       .  S
H289        C294   1.081   1_554  S
O290       Mg298   2.148       .  S
O290        C293   1.235       .  S
H291        C293   1.081       .  S
H292        C295   1.081       .  S
O297       Mg304   2.299       .  S
C300        O305   1.275   1_556  A
C300       C1098   1.477       .  S
O301        C302   1.272       .  A
C302       C1210   1.491       .  S
O307       Mg309   2.162   1_556  S
O307       Mg315   2.159   1_455  S
O307        C342   1.234       .  S
C308        O321   1.234   1_655  S
C308        O345   1.268       .  A
C308        H347   1.081       .  S
Mg309       O338   2.159   1_455  S
Mg309       O353   2.298   1_455  S
Mg309       O349   2.268   1_455  S
Mg309       O320   2.294       .  S
O310       Mg352   2.166       .  S
O310       Mg335   2.182       .  S
O310        C331   1.237       .  S
O311        C342   1.269       .  A
O311       Mg335   2.303       .  S
C312        O314   1.276       .  A
C312        O326   1.273       .  A
C312       C1199   1.503       .  S
O313        C341   1.272   1_556  A
O313       Mg315   2.305       .  S
O314       Mg346   2.318       .  S
Mg315       O321   2.148   1_655  S
Mg315       O329   2.265       .  S
Mg315       O317   2.283   1_655  S
C316        O354   1.268       .  A
C316        O322   1.275   1_554  A
C316       C1042   1.487       .  S
O317        C324   1.271       .  A
H318        C331   1.081       .  S
C319        O333   1.234       .  S
C319        O334   1.270       .  A
C319        H344   1.081   1_554  S
O320        C343   1.268       .  A
O321       Mg335   2.174       .  S
O322       Mg352   2.323       .  S
C323        O336   1.273       .  A
C323        O328   1.281       .  A
C323       C1056   1.502       .  S
C324        O351   1.282       .  A
C324       C1073   1.508       .  S
Mg325       O332   2.141       .  S
Mg325       O333   2.150   1_455  S
Mg325       O326   2.277   1_455  S
Mg325       O327   2.313       .  S
Mg325       O354   2.257       .  S
O327        C331   1.273   1_554  A
O328       Mg335   2.350       .  S
O329        C348   1.269       .  A
O330        C350   1.279       .  A
O330       Mg346   2.328       .  S
O332       Mg346   2.172   1_455  S
O332        C343   1.234       .  S
O333       Mg352   2.167   1_654  S
O334       Mg346   2.305       .  S
Mg335       O351   2.343       .  S
O336       Mg352   2.256       .  S
H337        C342   1.081   1_554  S
O338       Mg346   2.164       .  S
O338        C341   1.237       .  S
H339        C341   1.081       .  S
H340        C343   1.081       .  S
O345       Mg352   2.295   1_655  S
C348        O353   1.275   1_556  A
C348       C1031   1.485       .  S
O349        C350   1.272       .  A
C350       C1364   1.501       .  S
O355       Mg357   2.151       .  S
O355       Mg363   2.152       .  S
O355        C390   1.234       .  S
C356        O369   1.234       .  S
C356        O393   1.269       .  A
C356        H395   1.081       .  S
Mg357       O386   2.154       .  S
Mg357       O401   2.279       .  S
Mg357       O397   2.232       .  S
Mg357       O368   2.292       .  S
O358       Mg400   2.143       .  S
O358       Mg383   2.145       .  S
O358        C379   1.236       .  S
O359        C390   1.268       .  A
O359       Mg383   2.299       .  S
C360        O362   1.275       .  A
C360        O374   1.273       .  A
C360       C1014   1.492       .  S
O361        C389   1.271       .  A
O361       Mg363   2.306       .  S
O362       Mg394   2.292       .  S
Mg363       O369   2.133       .  S
Mg363       O377   2.251       .  S
Mg363       O365   2.283       .  S
C364        O402   1.267       .  A
C364        O370   1.268       .  A
C364        C947   1.463       .  S
O365        C372   1.271       .  A
H366        C379   1.081       .  S
C367        O381   1.234       .  S
C367        O382   1.269       .  A
C367        H392   1.081       .  S
O368        C391   1.268       .  A
O369       Mg383   2.158       .  S
O370       Mg400   2.270       .  S
C371        O384   1.271       .  A
C371        O376   1.275       .  A
C371        C989   1.493       .  S
C372        O399   1.273       .  A
C372        C972   1.487       .  S
Mg373       O380   2.129       .  S
Mg373       O381   2.161       .  S
Mg373       O374   2.287       .  S
Mg373       O375   2.306       .  S
Mg373       O402   2.236       .  S
O375        C379   1.271       .  A
O376       Mg383   2.305       .  S
O377        C396   1.268       .  A
O378        C398   1.277       .  A
O378       Mg394   2.318       .  S
O380       Mg394   2.161       .  S
O380        C391   1.234       .  S
O381       Mg400   2.169       .  S
O382       Mg394   2.306       .  S
Mg383       O399   2.274       .  S
O384       Mg400   2.267       .  S
H385        C390   1.081       .  S
O386       Mg394   2.153       .  S
O386        C389   1.236       .  S
H387        C389   1.081       .  S
H388        C391   1.081       .  S
O393       Mg400   2.299       .  S
C396        O401   1.270       .  A
C396        C961   1.476   1_545  S
O397        C398   1.268       .  A
C398       C1000   1.492       .  S
C403       C1070   1.495       .  S
C403        C404   1.400       .  A
C403        C408   1.427       .  A
C404        H423   1.085       .  S
C404        C405   1.395       .  A
C405       C1126   1.479       .  S
C405        C406   1.407       .  A
C406        C407   1.419       .  A
C406        C413   1.405       .  A
C407        C408   1.425       .  A
C407        C412   1.423       .  A
C408        C409   1.408       .  A
C409        H419   1.082       .  S
C409        C410   1.404       .  A
C410        H420   1.083       .  S
C410        C411   1.409       .  A
C411        C412   1.421       .  A
C411        C418   1.423       .  A
C412        C415   1.422       .  A
C413        H421   1.083       .  S
C413        C414   1.388       .  A
C414        H422   1.083       .  S
C414        C415   1.403       .  A
C415        C416   1.411       .  A
C416        C986   1.487       .  S
C416        C417   1.396       .  A
C417        H424   1.085       .  S
C417        C418   1.401       .  A
C418        C933   1.489       .  S
C425       C1059   1.495       .  S
C425        C426   1.404       .  A
C425        C430   1.419       .  A
C426        H445   1.085       .  S
C426        C427   1.404       .  A
C427       C1168   1.499       .  S
C427        C428   1.420       .  A
C428        C429   1.424       .  A
C428        C435   1.406       .  A
C429        C430   1.421       .  A
C429        C434   1.425       .  A
C430        C431   1.408       .  A
C431        H441   1.082       .  S
C431        C432   1.396       .  A
C432        H442   1.082       .  S
C432        C433   1.404       .  A
C433        C434   1.424       .  A
C433        C440   1.419       .  A
C434        C437   1.422       .  A
C435        H443   1.082       .  S
C435        C436   1.395       .  A
C436        H444   1.082       .  S
C436        C437   1.405       .  A
C437        C438   1.417       .  A
C438        C975   1.485       .  S
C438        C439   1.393       .  A
C439        H446   1.086       .  S
C439        C440   1.393       .  A
C440        C916   1.488       .  S
O447       Mg449   2.173       .  S
O447       Mg455   2.151       .  S
O447        C482   1.233       .  S
C448        O461   1.234       .  S
C448        O485   1.269       .  A
C448        H487   1.081       .  S
Mg449       O478   2.155       .  S
Mg449       O493   2.284       .  S
Mg449       O489   2.252       .  S
Mg449       O460   2.292       .  S
O450       Mg492   2.157       .  S
O450       Mg475   2.163       .  S
O450        C471   1.237       .  S
O451        C482   1.269       .  A
O451       Mg475   2.310       .  S
C452        O454   1.276       .  A
C452        O466   1.275       .  A
C452        C888   1.499       .  S
O453        C481   1.272       .  A
O453       Mg455   2.310       .  S
O454       Mg486   2.297       .  S
Mg455       O461   2.161       .  S
Mg455       O469   2.279       .  S
Mg455       O457   2.299       .  S
C456        O494   1.269   1_565  A
C456        O462   1.270   1_565  A
C456        C849   1.477       .  S
O457        C464   1.276       .  A
H458        C471   1.081       .  S
C459        O473   1.233       .  S
C459        O474   1.269       .  A
C459        H484   1.081       .  S
O460        C483   1.268       .  A
O461       Mg475   2.171       .  S
O462       Mg492   2.289       .  S
C463        O476   1.270       .  A
C463        O468   1.279       .  A
C463        C874   1.498       .  S
C464        O491   1.275       .  A
C464        C930   1.501       .  S
Mg465       O472   2.139       .  S
Mg465       O473   2.151       .  S
Mg465       O466   2.293       .  S
Mg465       O467   2.311       .  S
Mg465       O494   2.255       .  S
O467        C471   1.273       .  A
O468       Mg475   2.338       .  S
O469        C488   1.271       .  A
O470        C490   1.277       .  A
O470       Mg486   2.326       .  S
O472       Mg486   2.167       .  S
O472        C483   1.234       .  S
O473       Mg492   2.161       .  S
O474       Mg486   2.302       .  S
Mg475       O491   2.298       .  S
O476       Mg492   2.252       .  S
H477        C482   1.081       .  S
O478       Mg486   2.154       .  S
O478        C481   1.236       .  S
H479        C481   1.081       .  S
H480        C483   1.081       .  S
O485       Mg492   2.301       .  S
C488        O493   1.269       .  A
C488        C860   1.482   1_655  S
O489        C490   1.271       .  A
C490        C902   1.498       .  S
O495       Mg497   2.148       .  S
O495       Mg503   2.158       .  S
O495        C530   1.235       .  S
C496        O509   1.234       .  S
C496        O533   1.268       .  A
C496        H535   1.081       .  S
Mg497       O526   2.162       .  S
Mg497       O541   2.327       .  S
Mg497       O537   2.259       .  S
Mg497       O508   2.303       .  S
O498       Mg540   2.156       .  S
O498       Mg523   2.154       .  S
O498        C519   1.235       .  S
O499        C530   1.270       .  A
O499       Mg523   2.300       .  S
C500        O502   1.274       .  A
C500        O514   1.271       .  A
C500        C919   1.492       .  S
O501        C529   1.269       .  A
O501       Mg503   2.298       .  S
O502       Mg534   2.291       .  S
Mg503       O509   2.145       .  S
Mg503       O517   2.257       .  S
Mg503       O505   2.253       .  S
C504        O542   1.270       .  A
C504        O510   1.276       .  A
C504        C776   1.478   1_655  S
O505        C512   1.269       .  A
H506        C519   1.081       .  S
C507        O521   1.235       .  S
C507        O522   1.271       .  A
C507        H532   1.081       .  S
O508        C531   1.269       .  A
O509       Mg523   2.168       .  S
O510       Mg540   2.315       .  S
C511        O524   1.273       .  A
C511        O516   1.278       .  A
C511        C835   1.499       .  S
C512        O539   1.275       .  A
C512        C818   1.494       .  S
Mg513       O520   2.156       .  S
Mg513       O521   2.152       .  S
Mg513       O514   2.276       .  S
Mg513       O515   2.303       .  S
Mg513       O542   2.261       .  S
O515        C519   1.270       .  A
O516       Mg523   2.316       .  S
O517        C536   1.269       .  A
O518        C538   1.277       .  A
O518       Mg534   2.316       .  S
O520       Mg534   2.164       .  S
O520        C531   1.234       .  S
O521       Mg540   2.162       .  S
O522       Mg534   2.308       .  S
Mg523       O539   2.301       .  S
O524       Mg540   2.275       .  S
H525        C530   1.081       .  S
O526       Mg534   2.156       .  S
O526        C529   1.235       .  S
H527        C529   1.081       .  S
H528        C531   1.081       .  S
O533       Mg540   2.295       .  S
C536        O541   1.277       .  A
C536        C793   1.489       .  S
O537        C538   1.273       .  A
C538        C804   1.496       .  S
C543       C1115   1.483       .  S
C543        C544   1.393       .  A
C543        C548   1.416       .  A
C544        H563   1.086       .  S
C544        C545   1.393       .  A
C545       C1185   1.477       .  S
C545        C546   1.414       .  A
C546        C547   1.420       .  A
C546        C553   1.404       .  A
C547        C548   1.422       .  A
C547        C552   1.422       .  A
C548        C549   1.404       .  A
C549        H559   1.083       .  S
C549        C550   1.395       .  A
C550        H560   1.083       .  S
C550        C551   1.408       .  A
C551        C552   1.419       .  A
C551        C558   1.414       .  A
C552        C555   1.423       .  A
C553        H561   1.083       .  S
C553        C554   1.395       .  A
C554        H562   1.082       .  S
C554        C555   1.407       .  A
C555        C556   1.420       .  A
C556        C877   1.496       .  S
C556        C557   1.403       .  A
C557        H564   1.085       .  S
C557        C558   1.401       .  A
C558        C807   1.485       .  S
C565       C1325   1.489       .  S
C565        C566   1.402       .  A
C565        C570   1.417       .  A
C566        H585   1.085       .  S
C566        C567   1.401       .  A
C567       C1479   1.487       .  S
C567        C568   1.413       .  A
C568        C569   1.420       .  A
C568        C575   1.405   1_455  A
C569        C570   1.421       .  A
C569        C574   1.422   1_455  A
C570        C571   1.407       .  A
C571        H581   1.083       .  S
C571        C572   1.396   1_455  A
C572        H582   1.083       .  S
C572        C573   1.407       .  A
C573        C574   1.421       .  A
C573        C580   1.417       .  A
C574        C577   1.421       .  A
C575        H583   1.082   1_655  S
C575        C576   1.390       .  A
C576        H584   1.082       .  S
C576        C577   1.405       .  A
C577        C578   1.414       .  A
C578        C905   1.490       .  S
C578        C579   1.401       .  A
C579        H586   1.085       .  S
C579        C580   1.403       .  A
C580        C832   1.487       .  S
C587       C1269   1.481       .  S
C587        C588   1.394       .  A
C587        C592   1.416       .  A
C588        H607   1.086       .  S
C588        C589   1.393       .  A
C589       C1490   1.483       .  S
C589        C590   1.416       .  A
C590        C591   1.421       .  A
C590        C597   1.405       .  A
C591        C592   1.422       .  A
C591        C596   1.422       .  A
C592        C593   1.405       .  A
C593        H603   1.083       .  S
C593        C594   1.398       .  A
C594        H604   1.083       .  S
C594        C595   1.407       .  A
C595        C596   1.421       .  A
C595        C602   1.417       .  A
C596        C599   1.423       .  A
C597        H605   1.083       .  S
C597        C598   1.395       .  A
C598        H606   1.082       .  S
C598        C599   1.406       .  A
C599        C600   1.418       .  A
C600       C1017   1.486       .  S
C600        C601   1.395       .  A
C601        H608   1.086       .  S
C601        C602   1.394       .  A
C602        C821   1.483       .  S
C609       C1252   1.485       .  S
C609        C610   1.400       .  A
C609        C614   1.415       .  A
C610        H629   1.085       .  S
C610        C611   1.398       .  A
C611       C1339   1.489       .  S
C611        C612   1.416       .  A
C612        C613   1.423       .  A
C612        C619   1.406       .  A
C613        C614   1.420       .  A
C613        C618   1.422   1_565  A
C614        C615   1.406       .  A
C615        H625   1.083       .  S
C615        C616   1.397   1_565  A
C616        H626   1.083       .  S
C616        C617   1.406       .  A
C617        C618   1.422       .  A
C617        C624   1.418       .  A
C618        C621   1.420       .  A
C619        H627   1.082       .  S
C619        C620   1.393       .  A
C620        H628   1.083       .  S
C620        C621   1.405   1_565  A
C621        C622   1.412       .  A
C622       C1003   1.480       .  S
C622        C623   1.397       .  A
C623        H630   1.085       .  S
C623        C624   1.396       .  A
C624        C891   1.486       .  S
O631       Mg633   2.147   1_655  S
O631       Mg639   2.155   1_554  S
O631        C666   1.236       .  S
C632        O645   1.234       .  S
C632        O669   1.270       .  A
C632        H671   1.081       .  S
Mg633       O662   2.157   1_554  S
Mg633       O677   2.287   1_554  S
Mg633       O673   2.263       .  S
Mg633       O644   2.298       .  S
O634       Mg676   2.158   1_554  S
O634       Mg659   2.158       .  S
O634        C655   1.236       .  S
O635        C666   1.271   1_565  A
O635       Mg659   2.306       .  S
C636        O638   1.272   1_554  A
C636        O650   1.268   1_545  A
C636       C1154   1.470       .  S
O637        C665   1.270       .  A
O637       Mg639   2.298   1_455  S
O638       Mg670   2.272       .  S
Mg639       O645   2.153   1_545  S
Mg639       O653   2.273       .  S
Mg639       O641   2.267       .  S
C640        O678   1.268       .  A
C640        O646   1.276   1_455  A
C640       C1045   1.483       .  S
O641        C648   1.270   1_546  A
H642        C655   1.081       .  S
C643        O657   1.236       .  S
C643        O658   1.271   1_565  A
C643        H668   1.081       .  S
O644        C667   1.268       .  A
O645       Mg659   2.158   1_556  S
O646       Mg676   2.333   1_554  S
C647        O660   1.271       .  A
C647        O652   1.280       .  A
C647       C1101   1.480       .  S
C648        O675   1.276       .  A
C648       C1140   1.482       .  S
Mg649       O656   2.150   1_565  S
Mg649       O657   2.143   1_554  S
Mg649       O650   2.259       .  S
Mg649       O651   2.299   1_455  S
Mg649       O678   2.259       .  S
O651        C655   1.270       .  A
O652       Mg659   2.330   1_556  S
O653        C672   1.270       .  A
O654        C674   1.278       .  A
O654       Mg670   2.323   1_554  S
O656       Mg670   2.153   1_554  S
O656        C667   1.233       .  S
O657       Mg676   2.143   1_455  S
O658       Mg670   2.309       .  S
Mg659       O675   2.305       .  S
O660       Mg676   2.244       .  S
H661        C666   1.081       .  S
O662       Mg670   2.144       .  S
O662        C665   1.236       .  S
H663        C665   1.081       .  S
H664        C667   1.081       .  S
O669       Mg676   2.303       .  S
C672        O677   1.273   1_655  A
C672       C1028   1.481       .  S
O673        C674   1.271       .  A
C674       C1087   1.492       .  S
O679       Mg681   2.140       .  S
O679       Mg687   2.170       .  S
O679        C714   1.235       .  S
C680        O693   1.235       .  S
C680        O717   1.269       .  A
C680        H719   1.081       .  S
Mg681       O710   2.152       .  S
Mg681       O725   2.281       .  S
Mg681       O721   2.272       .  S
Mg681       O692   2.299       .  S
O682       Mg724   2.159       .  S
O682       Mg707   2.133       .  S
O682        C703   1.234       .  S
O683        C714   1.268       .  A
O683       Mg707   2.289       .  S
C684        O686   1.267       .  A
C684        O698   1.278       .  A
C684       C1451   1.478       .  S
O685        C713   1.266       .  A
O685       Mg687   2.288       .  S
O686       Mg718   2.217       .  S
Mg687       O693   2.148       .  S
Mg687       O701   2.281       .  S
Mg687       O689   2.313       .  S
C688        O726   1.277       .  A
C688        O694   1.273       .  A
C688       C1238   1.485       .  S
O689        C696   1.277       .  A
H690        C703   1.081       .  S
C691        O705   1.234       .  S
C691        O706   1.267       .  A
C691        H716   1.081       .  S
O692        C715   1.271       .  A
O693       Mg707   2.164       .  S
O694       Mg724   2.284       .  S
C695        O708   1.271       .  A
C695        O700   1.271       .  A
C695       C1311   1.481       .  S
C696        O723   1.267       .  A
C696       C1462   1.473       .  S
Mg697       O704   2.157       .  S
Mg697       O705   2.165       .  S
Mg697       O698   2.323       .  S
Mg697       O699   2.296       .  S
Mg697       O726   2.286       .  S
O699        C703   1.268       .  A
O700       Mg707   2.280       .  S
O701        C720   1.277       .  A
O702        C722   1.272       .  A
O702       Mg718   2.282       .  S
O704       Mg718   2.168       .  S
O704        C715   1.237       .  S
O705       Mg724   2.139       .  S
O706       Mg718   2.287       .  S
Mg707       O723   2.218       .  S
O708       Mg724   2.274       .  S
H709        C714   1.081       .  S
O710       Mg718   2.125       .  S
O710        C713   1.233       .  S
H711        C713   1.081       .  S
H712        C715   1.081       .  S
O717       Mg724   2.294       .  S
C720        O725   1.272       .  A
C720       C1227   1.492       .  S
O721        C722   1.272       .  A
C722       C1297   1.483       .  S
O727       Mg729   2.150       .  S
O727       Mg735   2.161       .  S
O727        C762   1.235       .  S
C728        O741   1.237       .  S
C728        O765   1.271       .  A
C728        H767   1.081       .  S
Mg729       O758   2.132       .  S
Mg729       O773   2.284       .  S
Mg729       O769   2.271       .  S
Mg729       O740   2.314       .  S
O730       Mg772   2.134       .  S
O730       Mg755   2.140       .  S
O730        C751   1.234       .  S
O731        C762   1.269       .  A
O731       Mg755   2.294       .  S
C732        O734   1.267       .  A
C732        O746   1.279       .  A
C732        C790   1.486       .  S
O733        C761   1.270       .  A
O733       Mg735   2.311       .  S
O734       Mg766   2.238       .  S
Mg735       O741   2.137       .  S
Mg735       O749   2.266       .  S
Mg735       O737   2.340       .  S
C736        O774   1.272       .  A
C736        O742   1.271       .  A
C736        C944   1.466       .  S
O737        C744   1.279       .  A
H738        C751   1.081       .  S
C739        O753   1.236       .  S
C739        O754   1.271       .  A
C739        H764   1.081       .  S
O740        C763   1.273       .  A
O741       Mg755   2.146       .  S
O742       Mg772   2.266       .  S
C743        O756   1.272       .  A
C743        O748   1.269       .  A
C743        C863   1.478       .  S
C744        O771   1.266       .  A
C744        C779   1.487       .  S
Mg745       O752   2.135       .  S
Mg745       O753   2.169       .  S
Mg745       O746   2.351       .  S
Mg745       O747   2.305       .  S
Mg745       O774   2.251       .  S
O747        C751   1.269       .  A
O748       Mg755   2.284       .  S
O749        C768   1.273       .  A
O750        C770   1.266       .  A
O750       Mg766   2.276       .  S
O752       Mg766   2.133       .  S
O752        C763   1.237       .  S
O753       Mg772   2.167       .  S
O754       Mg766   2.305       .  S
Mg755       O771   2.230       .  S
O756       Mg772   2.289       .  S
H757        C762   1.081       .  S
O758       Mg766   2.152       .  S
O758        C761   1.235       .  S
H759        C761   1.081       .  S
H760        C763   1.081       .  S
O765       Mg772   2.303       .  S
C768        O773   1.271       .  A
C768        C958   1.470       .  S
O769        C770   1.269       .  A
C770        C846   1.474       .  S
C775        H782   1.084   1_455  S
C775        C776   1.398       .  A
C775        C780   1.399       .  A
C776        C777   1.415       .  A
C777        C778   1.408       .  A
C777        N784   1.438       .  S
C778        H783   1.084       .  S
C778        C779   1.403       .  A
C779        C780   1.423       .  A
C780        N781   1.433       .  S
N781        H785   1.040       .  S
N781        H786   1.050       .  S
N784        H787   1.046       .  S
N784        H788   1.045       .  S
C789        H796   1.084       .  S
C789        C790   1.408       .  A
C789        C794   1.407       .  A
C790        C791   1.409       .  A
C791        C792   1.411       .  A
C791        N798   1.437       .  S
C792        H797   1.084       .  S
C792        C793   1.411       .  A
C793        C794   1.410       .  A
C794        N795   1.438       .  S
N795        H799   1.046       .  S
N795        H800   1.046       .  S
N798        H801   1.045       .  S
N798        H802   1.046       .  S
C803        H810   1.084       .  S
C803        C804   1.409       .  A
C803        C808   1.400       .  A
C804        C805   1.420       .  A
C805        C806   1.409       .  A
C805        N812   1.438       .  S
C806        H811   1.084       .  S
C806        C807   1.401       .  A
C807        C808   1.413       .  A
C808        N809   1.439       .  S
N809        H813   1.046       .  S
N809        H814   1.043       .  S
N812        H815   1.046       .  S
N812        H816   1.046       .  S
C817        H824   1.084       .  S
C817        C818   1.411       .  A
C817        C822   1.398       .  A
C818        C819   1.415       .  A
C819        C820   1.410       .  A
C819        N826   1.437       .  S
C820        H825   1.084       .  S
C820        C821   1.405       .  A
C821        C822   1.413       .  A
C822        N823   1.440       .  S
N823        H827   1.046       .  S
N823        H828   1.042       .  S
N826        H829   1.045       .  S
N826        H830   1.046       .  S
C831        H838   1.084   1_655  S
C831        C832   1.401       .  A
C831        C836   1.403       .  A
C832        C833   1.406       .  A
C833        C834   1.407       .  A
C833        N840   1.437       .  S
C834        H839   1.083       .  S
C834        C835   1.411       .  A
C835        C836   1.424       .  A
C836        N837   1.432   1_655  S
N837        H841   1.045   1_455  S
N837        H842   1.045       .  S
N840        H843   1.046       .  S
N840        H844   1.045       .  S
C845        H852   1.084       .  S
C845        C846   1.405       .  A
C845        C850   1.408       .  A
C846        C847   1.410       .  A
C847        C848   1.402       .  A
C847        N854   1.439       .  S
C848        H853   1.084       .  S
C848        C849   1.404       .  A
C849        C850   1.413       .  A
C850        N851   1.438       .  S
N851        H855   1.046       .  S
N851        H856   1.045       .  S
N854        H857   1.046       .  S
N854        H858   1.046       .  S
C859        H866   1.084       .  S
C859        C860   1.406       .  A
C859        C864   1.408       .  A
C860        C861   1.417       .  A
C861        C862   1.400       .  A
C861        N868   1.433       .  S
C862        H867   1.084       .  S
C862        C863   1.402       .  A
C863        C864   1.411       .  A
C864        N865   1.437       .  S
N865        H869   1.046       .  S
N865        H870   1.046       .  S
N868        H871   1.046       .  S
N868        H872   1.044       .  S
C873        H880   1.084       .  S
C873        C874   1.408       .  A
C873        C878   1.406   1_545  A
C874        C875   1.418   1_545  A
C875        C876   1.408       .  A
C875        N882   1.438       .  S
C876        H881   1.084       .  S
C876        C877   1.403       .  A
C877        C878   1.418       .  A
C878        N879   1.438       .  S
N879        H883   1.046       .  S
N879        H884   1.043       .  S
N882        H885   1.045   1_565  S
N882        H886   1.046       .  S
C887        H894   1.084       .  S
C887        C888   1.411       .  A
C887        C892   1.400       .  A
C888        C889   1.418       .  A
C889        C890   1.412       .  A
C889        N896   1.437       .  S
C890        H895   1.084       .  S
C890        C891   1.403       .  A
C891        C892   1.413       .  A
C892        N893   1.440   1_545  S
N893        H897   1.046       .  S
N893        H898   1.043       .  S
N896        H899   1.045       .  S
N896        H900   1.046       .  S
C901        H908   1.084       .  S
C901        C902   1.410       .  A
C901        C906   1.403       .  A
C902        C903   1.419       .  A
C903        C904   1.409       .  A
C903        N910   1.438       .  S
C904        H909   1.084       .  S
C904        C905   1.402       .  A
C905        C906   1.416       .  A
C906        N907   1.439   1_655  S
N907        H911   1.046       .  S
N907        H912   1.043       .  S
N910        H913   1.045       .  S
N910        H914   1.046       .  S
C915        H922   1.084       .  S
C915        C916   1.399       .  A
C915        C920   1.403       .  A
C916        C917   1.420       .  A
C917        C918   1.404   1_455  A
C917        N924   1.439       .  S
C918        H923   1.084       .  S
C918        C919   1.404       .  A
C919        C920   1.418   1_655  A
C920        N921   1.433   1_455  S
N921        H925   1.046       .  S
N921        H926   1.045   1_655  S
N924        H927   1.043       .  S
N924        H928   1.046   1_455  S
C929        H936   1.084       .  S
C929        C930   1.412   1_455  A
C929        C934   1.403       .  A
C930        C931   1.420       .  A
C931        C932   1.405   1_655  A
C931        N938   1.432       .  S
C932        H937   1.084       .  S
C932        C933   1.405       .  A
C933        C934   1.413       .  A
C934        N935   1.438       .  S
N935        H939   1.046       .  S
N935        H940   1.043       .  S
N938        H941   1.045       .  S
N938        H942   1.045       .  S
C943        H950   1.084       .  S
C943        C944   1.404       .  A
C943        C948   1.401       .  A
C944        C945   1.410       .  A
C945        C946   1.400       .  A
C945        N952   1.439       .  S
C946        H951   1.084       .  S
C946        C947   1.403       .  A
C947        C948   1.408       .  A
C948        N949   1.438       .  S
N949        H953   1.046       .  S
N949        H954   1.045       .  S
N952        H955   1.046       .  S
N952        H956   1.046       .  S
C957        H964   1.084       .  S
C957        C958   1.400       .  A
C957        C962   1.402       .  A
C958        C959   1.411       .  A
C959        C960   1.405       .  A
C959        N966   1.438       .  S
C960        H965   1.084       .  S
C960        C961   1.404       .  A
C961        C962   1.414       .  A
C962        N963   1.438       .  S
N963        H967   1.046       .  S
N963        H968   1.046       .  S
N966        H969   1.045       .  S
N966        H970   1.046       .  S
C971        H978   1.083       .  S
C971        C972   1.405       .  A
C971        C976   1.405   1_545  A
C972        C973   1.423   1_545  A
C973        C974   1.398       .  A
C973        N980   1.433       .  S
C974        H979   1.084       .  S
C974        C975   1.399       .  A
C975        C976   1.412       .  A
C976        N977   1.438       .  S
N977        H981   1.045   1_565  S
N977        H982   1.046       .  S
N980        H983   1.046   1_565  S
N980        H984   1.044       .  S
C985        H992   1.084       .  S
C985        C986   1.403       .  A
C985        C990   1.406       .  A
C986        C987   1.414       .  A
C987        C988   1.402       .  A
C987        N994   1.439       .  S
C988        H993   1.084       .  S
C988        C989   1.409       .  A
C989        C990   1.414       .  A
C990        N991   1.432       .  S
N991        H995   1.046       .  S
N991        H996   1.046       .  S
N994        H997   1.043       .  S
N994        H998   1.046       .  S
C999       H1006   1.084       .  S
C999       C1000   1.408       .  A
C999       C1004   1.403       .  A
C1000      C1001   1.419       .  A
C1001      C1002   1.401       .  A
C1001      N1008   1.433   1_545  S
C1002      H1007   1.084   1_545  S
C1002      C1003   1.398       .  A
C1003      C1004   1.414       .  A
C1004      N1005   1.438       .  S
N1005      H1009   1.045       .  S
N1005      H1010   1.044       .  S
N1008      H1011   1.046       .  S
N1008      H1012   1.045       .  S
C1013      H1020   1.083       .  S
C1013      C1014   1.406       .  A
C1013      C1018   1.409       .  A
C1014      C1015   1.420       .  A
C1015      C1016   1.404       .  A
C1015      N1022   1.438       .  S
C1016      H1021   1.084       .  S
C1016      C1017   1.399       .  A
C1017      C1018   1.413       .  A
C1018      N1019   1.439       .  S
N1019      H1023   1.046       .  S
N1019      H1024   1.044       .  S
N1022      H1025   1.046       .  S
N1022      H1026   1.046       .  S
C1027      H1034   1.083       .  S
C1027      C1028   1.405       .  A
C1027      C1032   1.414       .  A
C1028      C1029   1.413   1_556  A
C1029      C1030   1.399       .  A
C1029      N1036   1.440   1_655  S
C1030      H1035   1.084   1_655  S
C1030      C1031   1.403   1_554  A
C1031      C1032   1.416       .  A
C1032      N1033   1.437       .  S
N1033      H1037   1.046       .  S
N1033      H1038   1.044       .  S
N1036      H1039   1.046   1_455  S
N1036      H1040   1.046       .  S
C1041      H1048   1.084   1_455  S
C1041      C1042   1.409       .  A
C1041      C1046   1.410   1_455  A
C1042      C1043   1.410       .  A
C1043      C1044   1.409       .  A
C1043      N1050   1.437   1_554  S
C1044      H1049   1.084   1_554  S
C1044      C1045   1.407       .  A
C1045      C1046   1.408   1_455  A
C1046      N1047   1.438       .  S
N1047      H1051   1.046       .  S
N1047      H1052   1.045       .  S
N1050      H1053   1.046   1_556  S
N1050      H1054   1.046       .  S
C1055      H1062   1.084       .  S
C1055      C1056   1.411       .  A
C1055      C1060   1.405       .  A
C1056      C1057   1.421       .  A
C1057      C1058   1.405       .  A
C1057      N1064   1.432       .  S
C1058      H1063   1.084       .  S
C1058      C1059   1.404       .  A
C1059      C1060   1.416       .  A
C1060      N1061   1.439       .  S
N1061      H1065   1.046       .  S
N1061      H1066   1.042       .  S
N1064      H1067   1.045       .  S
N1064      H1068   1.045       .  S
C1069      H1076   1.084       .  S
C1069      C1070   1.397       .  A
C1069      C1074   1.404       .  A
C1070      C1071   1.411       .  A
C1071      C1072   1.411       .  A
C1071      N1078   1.432       .  S
C1072      H1077   1.083       .  S
C1072      C1073   1.407       .  A
C1073      C1074   1.432       .  A
C1074      N1075   1.433       .  S
N1075      H1079   1.045       .  S
N1075      H1080   1.045       .  S
N1078      H1081   1.046       .  S
N1078      H1082   1.045       .  S
C1083      H1090   1.084       .  S
C1083      C1084   1.399       .  A
C1083      C1088   1.410       .  A
C1084      C1085   1.412       .  A
C1085      C1086   1.406       .  A
C1085      N1092   1.439       .  S
C1086      H1091   1.084       .  S
C1086      C1087   1.405       .  A
C1087      C1088   1.420       .  A
C1088      N1089   1.438       .  S
N1089      H1093   1.046       .  S
N1089      H1094   1.046       .  S
N1092      H1095   1.046       .  S
N1092      H1096   1.046       .  S
C1097      H1104   1.083       .  S
C1097      C1098   1.406       .  A
C1097      C1102   1.406       .  A
C1098      C1099   1.411       .  A
C1099      C1100   1.399       .  A
C1099      N1106   1.433       .  S
C1100      H1105   1.084       .  S
C1100      C1101   1.407       .  A
C1101      C1102   1.410       .  A
C1102      N1103   1.438       .  S
N1103      H1107   1.046       .  S
N1103      H1108   1.046       .  S
N1106      H1109   1.046       .  S
N1106      H1110   1.044   1_556  S
C1111      H1118   1.084       .  S
C1111      C1112   1.407       .  A
C1111      C1116   1.404       .  A
C1112      C1113   1.424       .  A
C1113      C1114   1.403       .  A
C1113      N1120   1.439       .  S
C1114      H1119   1.084       .  S
C1114      C1115   1.397       .  A
C1115      C1116   1.416       .  A
C1116      N1117   1.438       .  S
N1117      H1121   1.046       .  S
N1117      H1122   1.044       .  S
N1120      H1123   1.046       .  S
N1120      H1124   1.046       .  S
C1125      H1132   1.084       .  S
C1125      C1126   1.399       .  A
C1125      C1130   1.405       .  A
C1126      C1127   1.413       .  A
C1127      C1128   1.399       .  A
C1127      N1134   1.439       .  S
C1128      H1133   1.084       .  S
C1128      C1129   1.407       .  A
C1129      C1130   1.420       .  A
C1130      N1131   1.438       .  S
N1131      H1135   1.046       .  S
N1131      H1136   1.046       .  S
N1134      H1137   1.043       .  S
N1134      H1138   1.046       .  S
C1139      H1146   1.084       .  S
C1139      C1140   1.407   1_545  A
C1139      C1144   1.402       .  A
C1140      C1141   1.412   1_554  A
C1141      C1142   1.409       .  A
C1141      N1148   1.438       .  S
C1142      H1147   1.084       .  S
C1142      C1143   1.406   1_565  A
C1143      C1144   1.406   1_556  A
C1144      N1145   1.432       .  S
N1145      H1149   1.046       .  S
N1145      H1150   1.046       .  S
N1148      H1151   1.045       .  S
N1148      H1152   1.046       .  S
C1153      H1160   1.084       .  S
C1153      C1154   1.404   1_566  A
C1153      C1158   1.402       .  A
C1154      C1155   1.411       .  A
C1155      C1156   1.404       .  A
C1155      N1162   1.438       .  S
C1156      H1161   1.084       .  S
C1156      C1157   1.404       .  A
C1157      C1158   1.409   1_544  A
C1158      N1159   1.438       .  S
N1159      H1163   1.046       .  S
N1159      H1164   1.046       .  S
N1162      H1165   1.045       .  S
N1162      H1166   1.046       .  S
C1167      H1174   1.084       .  S
C1167      C1168   1.404       .  A
C1167      C1172   1.413       .  A
C1168      C1169   1.417       .  A
C1169      C1170   1.407       .  A
C1169      N1176   1.438       .  S
C1170      H1175   1.083       .  S
C1170      C1171   1.409       .  A
C1171      C1172   1.420       .  A
C1172      N1173   1.438   1_565  S
N1173      H1177   1.045       .  S
N1173      H1178   1.046       .  S
N1176      H1179   1.044       .  S
N1176      H1180   1.045       .  S
C1181      H1188   1.084       .  S
C1181      C1182   1.410       .  A
C1181      C1186   1.395       .  A
C1182      C1183   1.419       .  A
C1183      C1184   1.408       .  A
C1183      N1190   1.438       .  S
C1184      H1189   1.084       .  S
C1184      C1185   1.400       .  A
C1185      C1186   1.407       .  A
C1186      N1187   1.433       .  S
N1187      H1191   1.045       .  S
N1187      H1192   1.045       .  S
N1190      H1193   1.045       .  S
N1190      H1194   1.046       .  S
C1195      H1202   1.084       .  S
C1195      C1196   1.405       .  A
C1195      C1200   1.408       .  A
C1196      C1197   1.412       .  A
C1197      C1198   1.400       .  A
C1197      N1204   1.439       .  S
C1198      H1203   1.083       .  S
C1198      C1199   1.412       .  A
C1199      C1200   1.421       .  A
C1200      N1201   1.432       .  S
N1201      H1205   1.046       .  S
N1201      H1206   1.045       .  S
N1204      H1207   1.043       .  S
N1204      H1208   1.046       .  S
C1209      H1216   1.083       .  S
C1209      C1210   1.409       .  A
C1209      C1214   1.404       .  A
C1210      C1211   1.422       .  A
C1211      C1212   1.406       .  A
C1211      N1218   1.438       .  S
C1212      H1217   1.084       .  S
C1212      C1213   1.397       .  A
C1213      C1214   1.406       .  A
C1214      N1215   1.438       .  S
N1215      H1219   1.046       .  S
N1215      H1220   1.046       .  S
N1218      H1221   1.046       .  S
N1218      H1222   1.046       .  S
C1223      H1230   1.084   1_545  S
C1223      C1224   1.398       .  A
C1223      C1228   1.408       .  A
C1224      C1225   1.411       .  A
C1225      C1226   1.402       .  A
C1225      N1232   1.439       .  S
C1226      H1231   1.083       .  S
C1226      C1227   1.404       .  A
C1227      C1228   1.424       .  A
C1228      N1229   1.438       .  S
N1229      H1233   1.046       .  S
N1229      H1234   1.046       .  S
N1232      H1235   1.046       .  S
N1232      H1236   1.046       .  S
C1237      H1244   1.084       .  S
C1237      C1238   1.401       .  A
C1237      C1242   1.403       .  A
C1238      C1239   1.419       .  A
C1239      C1240   1.407       .  A
C1239      N1246   1.439       .  S
C1240      H1245   1.084       .  S
C1240      C1241   1.401       .  A
C1241      C1242   1.414       .  A
C1242      N1243   1.432       .  S
N1243      H1247   1.046       .  S
N1243      H1248   1.046       .  S
N1246      H1249   1.045       .  S
N1246      H1250   1.046       .  S
C1251      H1258   1.084   1_565  S
C1251      C1252   1.401       .  A
C1251      C1256   1.402       .  A
C1252      C1253   1.412       .  A
C1253      C1254   1.402       .  A
C1253      N1260   1.438       .  S
C1254      H1259   1.084       .  S
C1254      C1255   1.411       .  A
C1255      C1256   1.423       .  A
C1256      N1257   1.433   1_565  S
N1257      H1261   1.045   1_545  S
N1257      H1262   1.045       .  S
N1260      H1263   1.044       .  S
N1260      H1264   1.045       .  S
C1265      H1272   1.081       .  S
C1265      C1266   1.407       .  A
C1265      C1270   1.395       .  A
C1266      C1267   1.416       .  A
C1267      C1268   1.413       .  A
C1267      N1274   1.437       .  S
C1268      H1273   1.084       .  S
C1268      C1269   1.405       .  A
C1269      C1270   1.411       .  A
C1270      N1271   1.439       .  S
N1271      H1275   1.046       .  S
N1271      H1276   1.043       .  S
N1274      H1277   1.046       .  S
N1274      H1278   1.046       .  S
C1279      H1286   1.084       .  S
C1279      C1280   1.411       .  A
C1279      C1284   1.403       .  A
C1280      C1281   1.413       .  A
C1281      C1282   1.404       .  A
C1281      N1288   1.432       .  S
C1282      H1287   1.084       .  S
C1282      C1283   1.401       .  A
C1283      C1284   1.413       .  A
C1284      N1285   1.439       .  S
N1285      H1289   1.046       .  S
N1285      H1290   1.044       .  S
N1288      H1291   1.046       .  S
N1288      H1292   1.046       .  S
C1293      H1300   1.084       .  S
C1293      C1294   1.409       .  A
C1293      C1298   1.408       .  A
C1294      C1295   1.407       .  A
C1295      C1296   1.402       .  A
C1295      N1302   1.432       .  S
C1296      H1301   1.084       .  S
C1296      C1297   1.407       .  A
C1297      C1298   1.410       .  A
C1298      N1299   1.438       .  S
N1299      H1303   1.046       .  S
N1299      H1304   1.045       .  S
N1302      H1305   1.046       .  S
N1302      H1306   1.045       .  S
C1307      H1314   1.082       .  S
C1307      C1308   1.407       .  A
C1307      C1312   1.400       .  A
C1308      C1309   1.412       .  A
C1309      C1310   1.405       .  A
C1309      N1316   1.438   1_655  S
C1310      H1315   1.084       .  S
C1310      C1311   1.406       .  A
C1311      C1312   1.412       .  A
C1312      N1313   1.433       .  S
N1313      H1317   1.044       .  S
N1313      H1318   1.046       .  S
N1316      H1319   1.045       .  S
N1316      H1320   1.046   1_455  S
C1321      H1328   1.083       .  S
C1321      C1322   1.410       .  A
C1321      C1326   1.409       .  A
C1322      C1323   1.417       .  A
C1323      C1324   1.407       .  A
C1323      N1330   1.432   1_455  S
C1324      H1329   1.084   1_455  S
C1324      C1325   1.401       .  A
C1325      C1326   1.408       .  A
C1326      N1327   1.437       .  S
N1327      H1331   1.046       .  S
N1327      H1332   1.046       .  S
N1330      H1333   1.046       .  S
N1330      H1334   1.046       .  S
C1335      H1342   1.084       .  S
C1335      C1336   1.409       .  A
C1335      C1340   1.404       .  A
C1336      C1337   1.414       .  A
C1337      C1338   1.410       .  A
C1337      N1344   1.432       .  S
C1338      H1343   1.084       .  S
C1338      C1339   1.404       .  A
C1339      C1340   1.408       .  A
C1340      N1341   1.438       .  S
N1341      H1345   1.046       .  S
N1341      H1346   1.045   1_565  S
N1344      H1347   1.046       .  S
N1344      H1348   1.045       .  S
C1349      H1356   1.084       .  S
C1349      C1350   1.400       .  A
C1349      C1354   1.404       .  A
C1350      C1351   1.423       .  A
C1351      C1352   1.408   1_655  A
C1351      N1358   1.439       .  S
C1352      H1357   1.083       .  S
C1352      C1353   1.404       .  A
C1353      C1354   1.420   1_455  A
C1354      N1355   1.433   1_655  S
N1355      H1359   1.046       .  S
N1355      H1360   1.045   1_455  S
N1358      H1361   1.043       .  S
N1358      H1362   1.046       .  S
C1363      H1370   1.083       .  S
C1363      C1364   1.412       .  A
C1363      C1368   1.409       .  A
C1364      C1365   1.425       .  A
C1365      C1366   1.401       .  A
C1365      N1372   1.433       .  S
C1366      H1371   1.084       .  S
C1366      C1367   1.400       .  A
C1367      C1368   1.407       .  A
C1368      N1369   1.437       .  S
N1369      H1373   1.046       .  S
N1369      H1374   1.046       .  S
N1372      H1375   1.046   1_655  S
N1372      H1376   1.044       .  S
C1377      H1384   1.083       .  S
C1377      C1378   1.411       .  A
C1377      C1382   1.410       .  A
C1378      C1379   1.415       .  A
C1379      C1380   1.404       .  A
C1379      N1386   1.432       .  S
C1380      H1385   1.084       .  S
C1380      C1381   1.402       .  A
C1381      C1382   1.410       .  A
C1382      N1383   1.438       .  S
N1383      H1387   1.045       .  S
N1383      H1388   1.046       .  S
N1386      H1389   1.046   1_545  S
N1386      H1390   1.046       .  S
C1391      H1398   1.084       .  S
C1391      C1392   1.399       .  A
C1391      C1396   1.396       .  A
C1392      C1393   1.409       .  A
C1393      C1394   1.405   1_545  A
C1393      N1400   1.438       .  S
C1394      H1399   1.083       .  S
C1394      C1395   1.408       .  A
C1395      C1396   1.424   1_565  A
C1396      N1397   1.432       .  S
N1397      H1401   1.043       .  S
N1397      H1402   1.045   1_545  S
N1400      H1403   1.046       .  S
N1400      H1404   1.045   1_545  S
C1405      H1412   1.084       .  S
C1405      C1406   1.399       .  A
C1405      C1410   1.400       .  A
C1406      C1407   1.417       .  A
C1407      C1408   1.401       .  A
C1407      N1414   1.439       .  S
C1408      H1413   1.084       .  S
C1408      C1409   1.405       .  A
C1409      C1410   1.417       .  A
C1410      N1411   1.433       .  S
N1411      H1415   1.046       .  S
N1411      H1416   1.046       .  S
N1414      H1417   1.044       .  S
N1414      H1418   1.046       .  S
C1419      H1426   1.084       .  S
C1419      C1420   1.409       .  A
C1419      C1424   1.403       .  A
C1420      C1421   1.420       .  A
C1421      C1422   1.401       .  A
C1421      N1428   1.439       .  S
C1422      H1427   1.085       .  S
C1422      C1423   1.398       .  A
C1423      C1424   1.412       .  A
C1424      N1425   1.438       .  S
N1425      H1429   1.046       .  S
N1425      H1430   1.044       .  S
N1428      H1431   1.046       .  S
N1428      H1432   1.046       .  S
C1433      H1440   1.084       .  S
C1433      C1434   1.401       .  A
C1433      C1438   1.408       .  A
C1434      C1435   1.415       .  A
C1435      C1436   1.407   1_545  A
C1435      N1442   1.438       .  S
C1436      H1441   1.083       .  S
C1436      C1437   1.409       .  A
C1437      C1438   1.420   1_565  A
C1438      N1439   1.438       .  S
N1439      H1443   1.046       .  S
N1439      H1444   1.046   1_545  S
N1442      H1445   1.044       .  S
N1442      H1446   1.045       .  S
C1447      H1454   1.084       .  S
C1447      C1448   1.405       .  A
C1447      C1452   1.404       .  A
C1448      C1449   1.413       .  A
C1449      C1450   1.402       .  A
C1449      N1456   1.433       .  S
C1450      H1455   1.084       .  S
C1450      C1451   1.403       .  A
C1451      C1452   1.413       .  A
C1452      N1453   1.438       .  S
N1453      H1457   1.045       .  S
N1453      H1458   1.046       .  S
N1456      H1459   1.045       .  S
N1456      H1460   1.046       .  S
C1461      H1468   1.084       .  S
C1461      C1462   1.403       .  A
C1461      C1466   1.405       .  A
C1462      C1463   1.407       .  A
C1463      C1464   1.398       .  A
C1463      N1470   1.433       .  S
C1464      H1469   1.084       .  S
C1464      C1465   1.406       .  A
C1465      C1466   1.417       .  A
C1466      N1467   1.439       .  S
N1467      H1471   1.046       .  S
N1467      H1472   1.046       .  S
N1470      H1473   1.046       .  S
N1470      H1474   1.046       .  S
C1475      H1482   1.083       .  S
C1475      C1476   1.413       .  A
C1475      C1480   1.409       .  A
C1476      C1477   1.423       .  A
C1477      C1478   1.401       .  A
C1477      N1484   1.432       .  S
C1478      H1483   1.084       .  S
C1478      C1479   1.399       .  A
C1479      C1480   1.407       .  A
C1480      N1481   1.438   1_455  S
N1481      H1485   1.046       .  S
N1481      H1486   1.046       .  S
N1484      H1487   1.045       .  S
N1484      H1488   1.045       .  S
C1489      H1496   1.084       .  S
C1489      C1490   1.405       .  A
C1489      C1494   1.410       .  A
C1490      C1491   1.413       .  A
C1491      C1492   1.397       .  A
C1491      N1498   1.440       .  S
C1492      H1497   1.084       .  S
C1492      C1493   1.411       .  A
C1493      C1494   1.416       .  A
C1494      N1495   1.437       .  S
N1495      H1499   1.046       .  S
N1495      H1500   1.045       .  S
N1498      H1501   1.042       .  S
N1498      H1502   1.046       .  S
C1503      H1510   1.083       .  S
C1503      C1504   1.411   1_655  A
C1503      C1508   1.404       .  A
C1504      C1505   1.423       .  A
C1505      C1506   1.401   1_455  A
C1505      N1512   1.432       .  S
C1506      H1511   1.084       .  S
C1506      C1507   1.400       .  A
C1507      C1508   1.406       .  A
C1508      N1509   1.439       .  S
N1509      H1513   1.045       .  S
N1509      H1514   1.046       .  S
N1512      H1515   1.045       .  S
N1512      H1516   1.045       .  S
C1517      H1524   1.084       .  S
C1517      C1518   1.401       .  A
C1517      C1522   1.404       .  A
C1518      C1519   1.418       .  A
C1519      C1520   1.402       .  A
C1519      N1526   1.440       .  S
C1520      H1525   1.084       .  S
C1520      C1521   1.408       .  A
C1521      C1522   1.415       .  A
C1522      N1523   1.432       .  S
N1523      H1527   1.046       .  S
N1523      H1528   1.045       .  S
N1526      H1529   1.042       .  S
N1526      H1530   1.046       .  S
