geometry optimzed in LAMMPS
_audit_creation_date              2020-11-30 
_audit_creation_method            'lammps2cif' 
_symmetry_space_group_name_H-M    'P1' 
_symmetry_Int_Tables_number       1 
_symmetry_cell_setting            triclinic 
loop_ 
_symmetry_equiv_pos_as_xyz 
  x,y,z 
_cell_length_a                    42.40220159 
_cell_length_b                    42.47431040065255 
_cell_length_c                    45.93991248173067 
_cell_angle_alpha                 90.238625229401 
_cell_angle_beta                  89.5182645605948 
_cell_angle_gamma                 120.89428552434732 
loop_ 
_atom_site_label 
_atom_site_type_symbol 
_atom_site_fract_x 
_atom_site_fract_y 
_atom_site_fract_z 
_atom_site_charge 
O1          O  0.14669332  0.18496710  0.31212633    -0.87700
C2          C  0.04745431  0.09077576  0.30166430     0.88300
Mg3        Mg  0.17056206  0.20855836  0.35380713     1.58100
O4          O  0.05291455  0.17513085  0.28481006    -0.87500
O5          O  0.13546584  0.19765494  0.26873859    -0.74800
C6          C  0.04031235  0.21614397  0.42602941     0.93300
O7          O  0.11005351  0.11659895  0.35524426    -0.74600
O8          O  0.06955943  0.21618963  0.43229235    -0.82100
Mg9        Mg  0.12893036  0.12841001  0.30709235     1.58000
C10         C  0.46442092  0.18079410  0.32363666     0.93300
O11         O  0.14836058  0.13562737  0.25953538    -0.80400
H12         H  0.07394835  0.22339258  0.26430755    -0.05700
C13         C  0.01741503  0.13441372  0.36895211     0.88200
O14         O  0.15198902  0.25039512  0.34977539    -0.74900
O15         O  0.07547156  0.11909786  0.29371924    -0.87700
O16         O  0.47684643  0.17072248  0.30269275    -0.80500
C17         C  0.48468766  0.10215119  0.23989274     0.93400
C18         C  0.12932700  0.11945201  0.23713296     0.93200
Mg19       Mg  0.04240848  0.21092132  0.35567545     1.58000
O20         O  0.02227995  0.20021010  0.40322561    -0.80400
O21         O  0.06139635  0.22496597  0.30697884    -0.74600
O22         O  0.01810093  0.10919586  0.23594155    -0.80500
O23         O  0.18654422  0.13936898  0.32007687    -0.82200
O24         O  0.15227833  0.23178864  0.42490631    -0.80500
C25         C  0.06319771  0.20824118  0.28437652     0.87700
O26         O  0.09638163  0.22270816  0.36784996    -0.87600
O27         O  0.02722650  0.15567918  0.34807941    -0.87700
O28         O  0.03768818  0.14187531  0.39121332    -0.74800
Mg29       Mg  0.07679921  0.15102268  0.25645490     1.58000
O30         O  0.47568652  0.11250340  0.26280211    -0.82200
H31         H  0.18338803  0.22974799  0.29019976    -0.05900
O32         O  0.12051776  0.16795764  0.37567351    -0.87400
H33         H  0.09958017  0.12091181  0.39784006    -0.05700
H34         H  0.12184836  0.27487721  0.35445464    -0.05900
C35         C  0.10991946  0.13487331  0.37726277     0.87600
C36         C  0.15645946  0.20518634  0.29055423     0.88200
C37         C  0.12329012  0.25044156  0.35767379     0.88300
H38         H  0.99104140  0.10918929  0.36839304    -0.05900
O39         O  0.01826524  0.09078596  0.30791015    -0.74900
Mg40       Mg  0.09541883  0.18979309  0.40431355     1.58000
H41         H  0.04797638  0.06570443  0.30381272    -0.05900
C42         C  0.20600440  0.15588794  0.34227449     0.93300
O43         O  0.19607084  0.23340139  0.39674958    -0.82100
C44         C  0.18563801  0.24062012  0.42052197     0.93300
O45         O  0.10119739  0.12142888  0.23040670    -0.82100
Mg46       Mg  0.00241114  0.13507569  0.30588716     1.58200
O47         O  0.19804300  0.17458331  0.35911763    -0.80500
O48         O  0.48344955  0.19537206  0.34618057    -0.82100
C49         C  0.13849896  0.09489904  0.22087653    -0.10200
C50         C  0.13151016  0.06269898  0.23505897    -0.04100
C51         C  0.14096981  0.03849178  0.22243883    -0.10200
C52         C  0.15930567  0.04707500  0.19543739     0.10700
C53         C  0.16749447  0.07997482  0.18115072    -0.02000
C54         C  0.15626800  0.10355089  0.19344966     0.10500
C55         C  0.16385614  0.13538180  0.17828248    -0.12000
C56         C  0.18255880  0.14418514  0.15169233    -0.12000
C57         C  0.19501917  0.12189785  0.13987046     0.10500
C58         C  0.18745405  0.08955816  0.15465292    -0.02000
C59         C  0.17037730  0.02403461  0.18270276    -0.12200
C60         C  0.18979077  0.03343274  0.15651082    -0.12200
C61         C  0.19895649  0.06626055  0.14240903     0.10700
C62         C  0.21919533  0.07660206  0.11616467    -0.10200
C63         C  0.22778972  0.10911475  0.10264840    -0.04100
C64         C  0.21465488  0.13070245  0.11340311    -0.10200
H65         H  0.15545456  0.15373929  0.18690270     0.08000
H66         H  0.18791368  0.16899673  0.14072440     0.08000
H67         H  0.16480763  0.49888622  0.19310826     0.08200
H68         H  0.19813097  0.01514560  0.14759555     0.08200
H69         H  0.11825454  0.05623176  0.25630388     0.04600
H70         H  0.24186890  0.11589444  0.08166853     0.04600
C71         C  0.45360910  0.07765697  0.22041083    -0.10200
C72         C  0.42617149  0.04575718  0.23423780    -0.04100
C73         C  0.39171517  0.02324680  0.22194260    -0.10200
C74         C  0.38489488  0.03049312  0.19371659     0.10700
C75         C  0.41149103  0.06315172  0.17921002    -0.02000
C76         C  0.44575854  0.08749698  0.19272667     0.10500
C77         C  0.47001452  0.12084897  0.17846071    -0.12000
C78         C  0.46093487  0.12997623  0.15147098    -0.12000
C79         C  0.42757542  0.10577354  0.13745552     0.10500
C80         C  0.40301417  0.07168424  0.15149886    -0.02000
C81         C  0.35183720  0.00599400  0.17990763    -0.12200
C82         C  0.34506759  0.01275205  0.15191115    -0.12200
C83         C  0.37012752  0.04530081  0.13750688     0.10700
C84         C  0.36328222  0.05177457  0.10911648    -0.10200
C85         C  0.38599009  0.08571349  0.09613006    -0.04100
C86         C  0.41780988  0.11332043  0.10953534    -0.10200
H87         H  0.99602616  0.14153636  0.18807461     0.08000
H88         H  0.48037879  0.15592672  0.14142820     0.08000
H89         H  0.33139041  0.48061619  0.19020498     0.08200
H90         H  0.31957178  0.99253419  0.14182858     0.08200
H91         H  0.43087715  0.03952080  0.25612483     0.04600
H92         H  0.37948230  0.09008329  0.07423573     0.04600
O93         O  0.02428682  0.36849752  0.34567836    -0.87700
C94         C  0.12032939  0.37668044  0.36534194     0.88300
Mg95       Mg  0.00518419  0.36123032  0.30176287     1.58100
O96         O  0.11507795  0.45706707  0.37698749    -0.87500
O97         O  0.03072567  0.39676018  0.38703878    -0.74800
C98         C  0.13216550  0.50528879  0.23881165     0.93300
O99         O  0.06481150  0.33409525  0.31063266    -0.74600
O100        O  0.10568677  0.47428684  0.23111205    -0.82100
Mg101      Mg  0.04004960  0.33060538  0.35696921     1.58000
C102        C  0.20382324  0.05227205  0.33762069     0.93300
O103        O  0.01548968  0.32381859  0.40209913    -0.80400
H104        H  0.09330021  0.48370902  0.39663442    -0.05700
C105        C  0.15908174  0.45228654  0.29672185     0.88200
O106        O  0.01692639  0.42054255  0.30226116    -0.74900
O107        O  0.09187184  0.37665835  0.37093468    -0.87700
O108        O  0.19764085  0.03029899  0.35857272    -0.80500
C109        C  0.17499216  0.45174149  0.42687108     0.93400
C110        C  0.03287039  0.32705539  0.42527951     0.93200
Mg111      Mg  0.12630318  0.49831663  0.30709333     1.58000
O112        O  0.14998518  0.00834056  0.26162786    -0.80400
O113        O  0.10482149  0.49569598  0.35370966    -0.74600
O114        O  0.14167149  0.42541859  0.42837341    -0.80500
O115        O  0.48264805  0.28406423  0.34436499    -0.82200
O116        O  0.02870779  0.40810378  0.23856150    -0.80500
C117        C  0.10429339  0.47911901  0.37682132     0.87700
O118        O  0.07581946  0.45159800  0.29419076    -0.87600
O119        O  0.14596715  0.46204182  0.31641954    -0.87700
O120        O  0.14104814  0.43738919  0.27370923    -0.74800
Mg121      Mg  0.08715090  0.40954075  0.40494450     1.58000
O122        O  0.18807572  0.47240897  0.40472641    -0.82200
H123        H  0.98603045  0.37860339  0.36105029    -0.05900
O124        O  0.05887850  0.37547315  0.28699155    -0.87400
H125        H  0.08228353  0.34941537  0.26882717    -0.05700
H126        H  0.04653728  0.47618823  0.29916376    -0.05900
C127        C  0.06931274  0.35310044  0.28783999     0.87600
C128        C  0.01243192  0.38104139  0.36423880     0.88200
C129        C  0.04667094  0.45080857  0.29844559     0.88300
H130        H  0.18634432  0.45652309  0.29909274    -0.05900
O131        O  0.14998389  0.40631649  0.35976237    -0.74900
Mg132      Mg  0.08321466  0.42273339  0.25870280     1.58000
H133        H  0.11980832  0.35096552  0.36461195    -0.05900
C134        C  0.46789995  0.27891452  0.31954597     0.93300
O135        O  0.48475508  0.35543377  0.25783091    -0.82100
C136        C  0.49597144  0.38027787  0.23878213     0.93300
O137        O  0.06026467  0.35775832  0.43272303    -0.82100
Mg138      Mg  0.16723679  0.46722071  0.35945316     1.58200
O139        O  0.48480017  0.30105673  0.29899067    -0.80500
O140        O  0.18059091  0.04528950  0.31790022    -0.82100
O141        O  0.36718417  0.37848587  0.32961306    -0.87700
C142        C  0.29824623  0.39449022  0.27742054     0.88300
Mg143      Mg  0.34977309  0.35557143  0.37285579     1.58100
O144        O  0.37124398  0.47252865  0.30978639    -0.87500
O145        O  0.41062798  0.42602146  0.30639191    -0.74800
C146        C  0.28258056  0.44821766  0.43442362     0.93300
O147        O  0.27822996  0.32890296  0.32669496    -0.74600
O148        O  0.28080634  0.41760453  0.43634137    -0.82100
Mg149      Mg  0.32754530  0.34768876  0.29563273     1.58000
C150        C  0.34933301  0.05196695  0.34408354     0.93300
O151        O  0.37086431  0.36000923  0.26000265    -0.80400
H152        H  0.42498821  0.50917556  0.31338914    -0.05700
C153        C  0.27228619  0.43145412  0.35040246     0.88200
O154        O  0.38125268  0.41321754  0.39383853    -0.74900
O155        O  0.32716585  0.39673114  0.28525722    -0.87700
O156        O  0.35180500  0.03648738  0.32120225    -0.80500
C157        C  0.36264719  0.49554580  0.24119893     0.93400
C158        C  0.38728700  0.38287662  0.23938201     0.93200
Mg159      Mg  0.34460260  0.48475406  0.38020655     1.58000
O160        O  0.30048800  0.47135740  0.41439894    -0.80400
O161        O  0.39460805  0.50404375  0.34948018    -0.74600
O162        O  0.35527736  0.46266871  0.24111470    -0.80500
O163        O  0.32901711  0.29620443  0.30752158    -0.82200
O164        O  0.31745885  0.36936556  0.43519593    -0.80500
C165        C  0.39808365  0.49579034  0.32353407     0.87700
O166        O  0.34496984  0.43560118  0.39060513    -0.87600
O167        O  0.30520869  0.45416786  0.34621619    -0.87700
O168        O  0.26195747  0.40520060  0.36840696    -0.74800
Mg169      Mg  0.38009206  0.44344162  0.27501627     1.58000
O170        O  0.34986403  0.00683372  0.26106064    -0.82200
H171        H  0.42049190  0.39734946  0.33660367    -0.05900
O172        O  0.30170835  0.35930717  0.36689450    -0.87400
H173        H  0.24790190  0.32309719  0.36286853    -0.05700
H174        H  0.39426283  0.46327590  0.40950833    -0.05900
C175        C  0.27487328  0.33646321  0.35286551     0.87600
C176        C  0.40015147  0.40013804  0.32472628     0.88200
C177        C  0.37414920  0.43850321  0.39856093     0.88300
H178        H  0.25183116  0.43356924  0.33808589    -0.05900
O179        O  0.29197116  0.42034513  0.28216143    -0.74900
Mg180      Mg  0.29203000  0.38819300  0.40078878     1.58000
H181        H  0.27775334  0.36994538  0.26644562    -0.05900
C182        C  0.32287137  0.28129656  0.33254897     0.93300
O183        O  0.32678232  0.32713158  0.41675672    -0.82100
C184        C  0.31149672  0.33688329  0.43565526     0.93300
O185        O  0.38918871  0.41359751  0.23836459    -0.82100
Mg186      Mg  0.32418428  0.47783970  0.30361855     1.58200
O187        O  0.32223177  0.29749964  0.35557888    -0.80500
O188        O  0.34271236  0.03650626  0.36890245    -0.82100
C189        C  0.46862794  0.37815242  0.21912137    -0.10200
C190        C  0.44552735  0.38857969  0.23145437    -0.04100
C191        C  0.41128290  0.37700847  0.21992276    -0.10200
C192        C  0.40098414  0.35743629  0.19328950     0.10700
C193        C  0.42539821  0.34800832  0.17976465    -0.02000
C194        C  0.45918184  0.35789245  0.19313442     0.10500
C195        C  0.48230280  0.34685610  0.18059095    -0.12000
C196        C  0.47268109  0.32678023  0.15482277    -0.12000
C197        C  0.43961283  0.31706464  0.14079102     0.10500
C198        C  0.41560287  0.32769947  0.15346848    -0.02000
C199        C  0.36748631  0.34712387  0.17985870    -0.12200
C200        C  0.35844525  0.32849814  0.15327380    -0.12200
C201        C  0.38211755  0.31857913  0.13978527     0.10700
C202        C  0.37363247  0.30038975  0.11270669    -0.10200
C203        C  0.39768318  0.29031016  0.10030341    -0.04100
C204        C  0.43023235  0.29766467  0.11413996    -0.10200
H205        H  0.00773765  0.35263862  0.18908699     0.08000
H206        H  0.49151270  0.31913720  0.14586138     0.08000
H207        H  0.34847339  0.35407214  0.18956807     0.08200
H208        H  0.33263695  0.32179594  0.14339994     0.08200
H209        H  0.45283774  0.40285817  0.25226632     0.04600
H210        H  0.39106700  0.27673148  0.07928332     0.04600
O211        O  0.21384102  0.03216448  0.01098762    -0.87700
C212        C  0.23373159  0.46218077  0.05800751     0.88300
Mg213      Mg  0.18889143  0.01600404  0.96931867     1.58100
O214        O  0.31112831  0.03483043  0.02427417    -0.87500
O215        O  0.26500759  0.07472912  0.03082048    -0.74800
C216        C  0.27729679  0.44849554  0.90025364     0.93300
O217        O  0.16360602  0.44169015  0.01360710    -0.74600
O218        O  0.24646225  0.44651508  0.89998428    -0.82100
Mg219      Mg  0.18537560  0.49064101  0.04461031     1.58000
C220        C  0.38727364  0.01402323  0.98181754     0.93300
O221        O  0.20044494  0.03356953  0.07907667    -0.80400
H222        H  0.34769368  0.08863259  0.02147600    -0.05700
C223        C  0.26652533  0.43732213  0.98307572     0.88200
O224        O  0.24518813  0.04689009  0.94598104    -0.74900
O225        O  0.23564235  0.49107214  0.05063912    -0.87700
O226        O  0.37249016  0.00994363  0.00686776    -0.80500
C227        C  0.33530852  0.02307527  0.09050383     0.93400
C228        C  0.22491197  0.05196036  0.09787054     0.93200
Mg229      Mg  0.31742877  0.01138828  0.95270780     1.58000
O230        O  0.30203257  0.46760967  0.91865724    -0.80400
O231        O  0.33913117  0.06048923  0.98368364    -0.74600
O232        O  0.30249041  0.01602113  0.09166468    -0.80500
O233        O  0.13187176  0.49033439  0.03764510    -0.82200
O234        O  0.20145881  0.48596624  0.90651633    -0.80500
C235        C  0.33344293  0.06236880  0.01056013     0.87700
O236        O  0.26752237  0.01058041  0.94720423    -0.87600
O237        O  0.28991878  0.47011544  0.98660255    -0.87700
O238        O  0.23828185  0.42726197  0.96747107    -0.74800
Mg239      Mg  0.28331274  0.04337095  0.06022462     1.58000
O240        O  0.34595337  0.01053181  0.07005133    -0.82200
H241        H  0.23397362  0.08565032  0.00399678    -0.05900
O242        O  0.19258674  0.46753338  0.97342530    -0.87400
H243        H  0.15548336  0.41383867  0.97573478    -0.05700
H244        H  0.29426169  0.05974961  0.92790490    -0.05900
C245        C  0.16976336  0.43997677  0.98682829     0.87600
C246        C  0.23702400  0.06490362  0.01496875     0.88200
C247        C  0.27009554  0.03972816  0.93974166     0.88300
H248        H  0.26962000  0.41673345  0.99427177    -0.05900
O249        O  0.25921946  0.45577582  0.05179803    -0.74900
Mg250      Mg  0.21986500  0.45826959  0.93777085     1.58000
H251        H  0.20980746  0.44184017  0.06989878    -0.05900
C252        C  0.11637347  0.48949020  0.01380528     0.93300
O253        O  0.15845628  0.49259406  0.92755036    -0.82100
C254        C  0.16874606  0.47907796  0.90767099     0.93300
O255        O  0.25583338  0.05407045  0.09806482    -0.82100
Mg256      Mg  0.31554913  0.48682762  0.02800584     1.58200
O257        O  0.13193251  0.49284359  0.98929740    -0.80500
O258        O  0.37087377  0.01300608  0.95855095    -0.82100
O259        O  0.20035538  0.18915145  0.98595899    -0.87700
C260        C  0.20955649  0.28684386  0.97183958     0.88300
Mg261      Mg  0.19653586  0.16830898  0.02913414     1.58100
O262        O  0.28920112  0.28088552  0.95780544    -0.87500
O263        O  0.22744217  0.19688798  0.94389948    -0.74800
C264        C  0.34103051  0.29268349  0.09564648     0.93300
O265        O  0.16875111  0.22820153  0.02576986    -0.74600
O266        O  0.30958165  0.26588419  0.10233991    -0.82100
Mg267      Mg  0.16261368  0.20662969  0.97820000     1.58000
C268        C  0.38634403  0.37006976  0.99675953     0.93300
O269        O  0.15042208  0.18582550  0.93096754    -0.80400
H270        H  0.31678343  0.26173846  0.93580249    -0.05700
C271        C  0.28691895  0.32221639  0.03964354     0.88200
O272        O  0.25639841  0.18199085  0.02550449    -0.74900
O273        O  0.20864686  0.25845254  0.96450160    -0.87700
O274        O  0.36434082  0.36332093  0.97574244    -0.80500
C275        C  0.28315585  0.34225747  0.91004536     0.93400
C276        C  0.15748049  0.20414913  0.90747582     0.93200
Mg277      Mg  0.33394010  0.29114235  0.02623639     1.58000
O278        O  0.34550506  0.31166982  0.07309287    -0.80400
O279        O  0.33053955  0.27247495  0.97847912    -0.74600
O280        O  0.25706699  0.30912886  0.90850776    -0.80500
O281        O  0.11675090  0.14910325  0.99086705    -0.82200
O282        O  0.24369792  0.18978343  0.09362538    -0.80500
C283        C  0.31231987  0.27148597  0.95630490     0.87700
O284        O  0.28781287  0.23952447  0.03833941    -0.87600
O285        O  0.29688593  0.31049231  0.01911542    -0.87700
O286        O  0.27210575  0.30274388  0.06215090    -0.74800
Mg287      Mg  0.24125688  0.25459238  0.92958244     1.58000
O288        O  0.30443692  0.35509275  0.93175054    -0.82200
H289        H  0.20747483  0.15027168  0.96788647    -0.05900
O290        O  0.21080778  0.22091899  0.04671925    -0.87400
H291        H  0.18499013  0.24276296  0.06770669    -0.05700
H292        H  0.31208972  0.21098769  0.02843184    -0.05900
C293        C  0.18826004  0.23113885  0.04773978     0.87600
C294        C  0.21132716  0.17741328  0.96614004     0.88200
C295        C  0.28672635  0.21101020  0.03093116     0.88300
H296        H  0.29083706  0.34942023  0.03843153    -0.05900
O297        O  0.23964760  0.31567200  0.97799541    -0.74900
Mg298      Mg  0.25814983  0.24442088  0.07478421     1.58000
H299        H  0.18414883  0.28689120  0.97374482    -0.05900
C300        C  0.11280101  0.13270952  0.01488181     0.93300
O301        O  0.19245696  0.14580273  0.07327549    -0.82100
C302        C  0.21640145  0.15739903  0.09304331     0.93300
O303        O  0.18971663  0.23038118  0.90150827    -0.82100
Mg304      Mg  0.30066059  0.33290679  0.97650214     1.58200
O305        O  0.13578562  0.14803103  0.03510250    -0.80500
O306        O  0.37993503  0.34669542  0.01632312    -0.82100
O307        O  0.01519758  0.30955222  0.01822944    -0.87700
C308        C  0.42460182  0.20962492  0.03237169     0.88300
Mg309      Mg  0.03513395  0.33747758  0.97625662     1.58100
O310        O  0.00885742  0.21469370  0.04387164    -0.87500
O311        O  0.02994705  0.29672886  0.06033073    -0.74800
C312        C  0.04725773  0.21361857  0.90137933     0.93300
O313        O  0.44590240  0.27464936  0.98071573    -0.74600
O314        O  0.04633771  0.24229772  0.89480680    -0.85700
Mg315      Mg  0.46171034  0.29087640  0.02898523     1.58000
C316        C  0.02014173  0.13373810  0.99631883     0.93300
O317        O  0.47342640  0.30866237  0.07656393    -0.80400
H318        H  0.05861540  0.23888368  0.06206115    -0.05700
C319        C  0.46575765  0.18543682  0.96001279     0.88200
O320        O  0.08005571  0.32285012  0.97478454    -0.74900
O321        O  0.45371636  0.23722303  0.03910324    -0.87700
O322        O  0.50117763  0.13552989  0.01666299    -0.80500
C323        C  0.44101584  0.14510617  0.08983672     0.93400
C324        C  0.45519710  0.28847608  0.09792717     0.93200
Mg325      Mg  0.04350184  0.21422712  0.97020122     1.58000
O326        O  0.02972298  0.19471125  0.92339287    -0.80400
O327        O  0.05931691  0.23127155  0.01840579    -0.74600
O328        O  0.44717644  0.17754128  0.09505919    -0.80500
O329        O  0.47240945  0.34816720  0.02128358    -0.82200
O330        O  0.05643283  0.32422552  0.90266797    -0.80500
C331        C  0.04265062  0.22839415  0.04241245     0.87700
O332        O  0.05024853  0.26665508  0.95960549    -0.87600
O333        O  0.48769054  0.19398691  0.98029664    -0.87700
O334        O  0.47215337  0.20708235  0.93866420    -0.74800
Mg335      Mg  0.48679494  0.23729882  0.07477242     1.58000
O336        O  0.44966688  0.13703296  0.06547291    -0.82200
H337        H  0.06122620  0.34523253  0.03908418    -0.05900
O338        O  0.49571539  0.28919349  0.95518804    -0.87400
H339        H  0.44605217  0.26682769  0.93705638    -0.05700
H340        H  0.10438465  0.29314341  0.96669774    -0.05900
C341        C  0.46215944  0.27676145  0.95668096     0.87600
C342        C  0.03655858  0.31839723  0.03895705     0.88200
C343        C  0.07936474  0.29405328  0.96667405     0.88300
H344        H  0.44075120  0.15886874  0.96025692    -0.05900
O345        O  0.42396461  0.18063558  0.02483544    -0.74900
Mg346      Mg  0.01688753  0.26517698  0.92366276     1.58000
H347        H  0.39945411  0.21029500  0.03255800    -0.05900
C348        C  0.48803171  0.37171094  0.00118996     0.93300
O349        O  0.05527284  0.36517763  0.93248357    -0.82100
C350        C  0.06344671  0.35687758  0.90801392     0.93300
O351        O  0.45637650  0.25966412  0.10367471    -0.82100
Mg352      Mg  0.46854271  0.16527533  0.02174435     1.58200
O353        O  0.00089758  0.36513307  0.97800674    -0.80500
O354        O  0.03670876  0.15923128  0.97792262    -0.82100
O355        O  0.19884749  0.05171396  0.65319975    -0.87700
C356        C  0.12526925  0.05983965  0.60207753     0.88300
Mg357      Mg  0.18216187  0.02840738  0.69606008     1.58100
O358        O  0.19667101  0.14156733  0.63186197    -0.87500
O359        O  0.24038378  0.09973608  0.62915041    -0.74800
C360        C  0.11501429  0.11818391  0.76155072     0.93300
O361        O  0.11008381  0.99797795  0.65191168    -0.74600
O362        O  0.11461615  0.08821678  0.76328412    -0.82100
Mg363      Mg  0.15952283  0.01816313  0.62026078     1.58000
C364        C  0.17353607  0.21721602  0.66589248     0.93300
O365        O  0.20350639  0.03312874  0.58551590    -0.80400
H366        H  0.25038953  0.17848511  0.63526906    -0.05700
C367        C  0.09963441  0.09891482  0.67741717     0.88200
O368        O  0.21347099  0.08592903  0.71722089    -0.74900
O369        O  0.15571183  0.06494665  0.60886899    -0.87700
O370        O  0.17181557  0.19930522  0.64333387    -0.80500
C371        C  0.18219992  0.16209677  0.56440364     0.93400
C372        C  0.21962189  0.05564202  0.56469432     0.93200
Mg373      Mg  0.17277058  0.15367017  0.70404083     1.58000
O374        O  0.13023503  0.14056055  0.74041182    -0.80400
O375        O  0.22079455  0.17252674  0.67184969    -0.74600
O376        O  0.17877818  0.13058404  0.56427337    -0.80500
O377        O  0.16502010  0.46860840  0.63262379    -0.82200
O378        O  0.15071488  0.04078725  0.75895318    -0.80500
C379        C  0.22361136  0.16488460  0.64558621     0.87700
O380        O  0.17555867  0.10642132  0.71525732    -0.87600
O381        O  0.13228108  0.12022211  0.67130024    -0.87700
O382        O  0.09029951  0.07390183  0.69633169    -0.74800
Mg383      Mg  0.20713517  0.11381435  0.59761370     1.58000
O384        O  0.16470801  0.16930847  0.58311450    -0.82200
H385        H  0.25271983  0.07346297  0.65986542    -0.05900
O386        O  0.13325881  0.03096500  0.69107483    -0.87400
H387        H  0.07987800  0.99273367  0.68815857    -0.05700
H388        H  0.22527629  0.13544147  0.73334230    -0.05900
C389        C  0.10661701  0.00671383  0.67772801     0.87600
C390        C  0.23142821  0.07457881  0.64795511     0.88200
C391        C  0.20541889  0.11041539  0.72253435     0.88300
H392        H  0.07863142  0.10127030  0.66618571    -0.05900
O393        O  0.11619403  0.08352405  0.60756828    -0.74900
Mg394      Mg  0.12366207  0.05871295  0.72637969     1.58000
H395        H  0.10566757  0.03435425  0.59169049    -0.05900
C396        C  0.15831685  0.45431848  0.65789916     0.93300
O397        O  0.15940923  0.99910977  0.73855782    -0.82100
C398        C  0.14451164  0.00832115  0.75803203     0.93300
O399        O  0.21888410  0.08492906  0.56180415    -0.82100
Mg400      Mg  0.14615590  0.14159234  0.62753542     1.58200
O401        O  0.15352706  0.46987605  0.67955717    -0.80500
O402        O  0.16950088  0.20410289  0.69146391    -0.82100
C403        C  0.07152656  0.20339862  0.88573467    -0.10200
C404        C  0.10284228  0.20908633  0.90053739    -0.04100
C405        C  0.12628785  0.19783332  0.88902083    -0.10200
C406        C  0.11854545  0.18050792  0.86154726     0.10700
C407        C  0.08587983  0.17273912  0.84698376    -0.02000
C408        C  0.06234374  0.18427919  0.85900751     0.10500
C409        C  0.02987129  0.17555644  0.84436924    -0.12000
C410        C  0.02031757  0.15545223  0.81857990    -0.12000
C411        C  0.04303785  0.14362211  0.80654923     0.10500
C412        C  0.07634823  0.15275131  0.82054143    -0.02000
C413        C  0.14201030  0.17009864  0.84850404    -0.12200
C414        C  0.13349299  0.15215063  0.82161421    -0.12200
C415        C  0.10055575  0.14276402  0.80755915     0.10700
C416        C  0.09064319  0.12356181  0.78080641    -0.10200
C417        C  0.05673423  0.11237840  0.76876665    -0.04100
C418        C  0.03365822  0.12309989  0.78060922    -0.10200
H419        H  0.01138660  0.18387404  0.85293988     0.08000
H420        H  0.49398676  0.14793994  0.80922374     0.08000
H421        H  0.16722084  0.17590566  0.85897426     0.08200
H422        H  0.15234730  0.14478332  0.81222800     0.08200
H423        H  0.10894406  0.22231448  0.92170592     0.04600
H424        H  0.04971996  0.09809416  0.74795387     0.04600
C425        C  0.14078010  0.45040361  0.88920808    -0.10200
C426        C  0.11840788  0.41628083  0.90194913    -0.04100
C427        C  0.08690095  0.38853357  0.88828519    -0.10200
C428        C  0.07771205  0.39580394  0.86000011     0.10700
C429        C  0.10202362  0.43023441  0.84631648    -0.02000
C430        C  0.13399335  0.45715379  0.86097165     0.10500
C431        C  0.15836487  0.49058630  0.84737735    -0.12000
C432        C  0.15216304  0.49752036  0.81936674    -0.12000
C433        C  0.12051263  0.47199144  0.80449615     0.10500
C434        C  0.09429390  0.43852533  0.81823661    -0.02000
C435        C  0.04520780  0.37100216  0.84521602    -0.12200
C436        C  0.03697591  0.37969282  0.81765888    -0.12200
C437        C  0.06119304  0.41329598  0.80365785     0.10700
C438        C  0.05461785  0.42256642  0.77522643    -0.10200
C439        C  0.08212285  0.45491795  0.76197737    -0.04100
C440        C  0.11501911  0.47897995  0.77585848    -0.10200
H441        H  0.18299790  0.51145651  0.85807100     0.08000
H442        H  0.17240179  0.02351312  0.80963414     0.08000
H443        H  0.02590753  0.34479598  0.85497117     0.08200
H444        H  0.51135583  0.35937133  0.80831927     0.08200
H445        H  0.12483871  0.41190406  0.92386826     0.04600
H446        H  0.07839587  0.46102503  0.73977522     0.04600
O447        O  0.35569307  0.03504019  0.68267757    -0.87700
C448        C  0.45693363  0.04903479  0.69789924     0.88300
Mg449      Mg  0.33470290  0.03265368  0.63961066     1.58100
O450        O  0.44277018  0.12250003  0.71283111    -0.87500
O451        O  0.36085049  0.05822386  0.72596579    -0.74800
C452        C  0.46536735  0.17818835  0.57501823     0.93300
O453        O  0.39803325  0.00543875  0.64259529    -0.74600
O454        O  0.43965375  0.14622884  0.56814938    -0.82100
Mg455      Mg  0.37674266  0.99925962  0.68967780     1.58000
C456        C  0.03182281  0.22472534  0.68264714     0.93300
O457        O  0.35431322  0.48383696  0.73630329    -0.80400
H458        H  0.41869807  0.14664846  0.73306307    -0.05700
C459        C  0.49066185  0.12393915  0.63410509     0.88200
O460        O  0.35123568  0.09327478  0.64202875    -0.74900
O461        O  0.42712240  0.04620824  0.70377822    -0.87700
O462        O  0.01618357  0.20093287  0.70247252    -0.80500
C463        C  0.00603917  0.12007763  0.76066357     0.93400
C464        C  0.37179951  0.98927594  0.75970319     0.93200
Mg465      Mg  0.46016812  0.17201873  0.64474240     1.58000
O466        O  0.48343728  0.18415702  0.59840476    -0.80400
O467        O  0.43573379  0.16456216  0.69163022    -0.74600
O468        O  0.47396940  0.08967674  0.76054068    -0.80500
O469        O  0.32178113  0.45256150  0.67766960    -0.82200
O470        O  0.36020058  0.07781600  0.57161779    -0.80500
C471        C  0.43175438  0.14439744  0.71349700     0.87700
O472        O  0.40912432  0.12522485  0.62996092    -0.87600
O473        O  0.47867057  0.13538903  0.65343745    -0.87700
O474        O  0.47182029  0.10800864  0.61159728    -0.74800
Mg475      Mg  0.41915273  0.07382610  0.74011356     1.58000
O476        O  0.01664869  0.14504538  0.74177282    -0.82200
H477        H  0.31489708  0.03871221  0.70135800    -0.05900
O478        O  0.38755554  0.04522012  0.62166397    -0.87400
H479        H  0.40967798  0.02014117  0.60010279    -0.05700
H480        H  0.37975797  0.14883186  0.63887286    -0.05900
C481        C  0.39856423  0.02339577  0.62039192     0.87600
C482        C  0.34247910  0.04360796  0.70306934     0.88200
C483        C  0.38019612  0.12369688  0.63672525     0.88300
H484        H  0.51756592  0.12727852  0.63647370    -0.05900
O485        O  0.48569712  0.08026676  0.69419652    -0.74900
Mg486      Mg  0.41463271  0.09399242  0.59482459     1.58000
H487        H  0.45849379  0.02452723  0.69555324    -0.05900
C488        C  0.29857855  0.44655496  0.65802251     0.93300
O489        O  0.31372688  0.03013320  0.59446913    -0.82100
C490        C  0.32692090  0.05151925  0.57272050     0.93300
O491        O  0.39724177  0.02127032  0.76677010    -0.82100
Mg492      Mg  0.49706335  0.13947850  0.69748045     1.58200
O493        O  0.30506124  0.46950567  0.63779011    -0.80500
O494        O  0.01686087  0.22001769  0.65788984    -0.82100
O495        O  0.47133449  0.34670192  0.64887086    -0.87700
C496        C  0.37242917  0.25107012  0.63881998     0.88300
Mg497      Mg  0.50103866  0.36784729  0.68933670     1.58100
O498        O  0.37342288  0.33383705  0.62630701    -0.87500
O499        O  0.45623551  0.36058687  0.60746949    -0.74800
C500        C  0.37693834  0.37632710  0.76787739     0.93300
O501        O  0.43763925  0.27505597  0.68866796    -0.74600
O502        O  0.40670485  0.37684612  0.77315769    -0.82100
Mg503      Mg  0.45233256  0.29028458  0.64007406     1.58000
C504        C  0.29051889  0.34018831  0.67346896     0.93300
O505        O  0.47039189  0.30355781  0.59278808    -0.80400
H506        H  0.39242980  0.38235311  0.60673884    -0.05700
C507        C  0.34786586  0.29179057  0.71156734     0.88200
O508        O  0.48327422  0.41057537  0.69210366    -0.74900
O509        O  0.39875375  0.28087384  0.63132412    -0.87700
O510        O  0.29594489  0.32420055  0.65221315    -0.80500
C511        C  0.30641781  0.26226723  0.58219362     0.93400
C512        C  0.45120630  0.28565288  0.57115861     0.93200
Mg513      Mg  0.37230848  0.36868116  0.69936882     1.58000
O514        O  0.35639049  0.35663958  0.74734399    -0.80400
O515        O  0.38628037  0.38379395  0.65056505    -0.74600
O516        O  0.33963057  0.27100147  0.57708160    -0.80500
O517        O  0.00809056  0.29997905  0.64516709    -0.82200
O518        O  0.48932648  0.38981723  0.76230869    -0.80500
C519        C  0.38410520  0.36701755  0.62687991     0.87700
O520        O  0.42716468  0.37907272  0.70790946    -0.87600
O521        O  0.35453219  0.31269817  0.69071914    -0.87700
O522        O  0.37077063  0.29998431  0.73220516    -0.74800
Mg523      Mg  0.39767747  0.31283339  0.59556716     1.58000
O524        O  0.29649154  0.26898810  0.60656600    -0.82200
H525        H  0.50484921  0.39355707  0.62781177    -0.05900
O526        O  0.45327579  0.32553198  0.71335831    -0.87400
H527        H  0.43189497  0.27648202  0.73251768    -0.05700
H528        H  0.45172775  0.43296328  0.70023026    -0.05900
C529        C  0.44093094  0.29200571  0.71248451     0.87600
C530        C  0.47869610  0.36807260  0.62826992     0.88200
C531        C  0.45376430  0.40860634  0.70029404     0.88300
H532        H  0.32187021  0.26616822  0.71247385    -0.05900
O533        O  0.34295536  0.24861882  0.64766901    -0.74900
Mg534      Mg  0.42977317  0.34778108  0.74390447     1.58000
H535        H  0.37490457  0.22696775  0.63859773    -0.05900
C536        C  0.03433179  0.31804547  0.66241247     0.93300
O537        O  0.03150790  0.39024512  0.73130806    -0.82100
C538        C  0.02323151  0.39859941  0.75572547     0.93300
O539        O  0.42153317  0.28515335  0.56562274    -0.82100
Mg540      Mg  0.32534290  0.29122762  0.64970439     1.58200
O541        O  0.03235286  0.33707017  0.68309305    -0.80500
O542        O  0.31429639  0.35640389  0.69315764    -0.82100
C543        C  0.28248563  0.42282091  0.88284863    -0.10200
C544        C  0.27264668  0.39038458  0.89711744    -0.04100
C545        C  0.28618150  0.36838771  0.88818159    -0.10200
C546        C  0.30729854  0.37665367  0.86232584     0.10700
C547        C  0.31560299  0.40863437  0.84645160    -0.02000
C548        C  0.30376083  0.43232732  0.85716291     0.10500
C549        C  0.31349700  0.46472762  0.84209596    -0.12000
C550        C  0.33357989  0.47322966  0.81625233    -0.12000
C551        C  0.34506333  0.44986499  0.80491918     0.10500
C552        C  0.33666630  0.41755867  0.82043034    -0.02000
C553        C  0.32056427  0.35433073  0.85212642    -0.12200
C554        C  0.34058468  0.36258163  0.82609567    -0.12200
C555        C  0.34862999  0.39383505  0.80977126     0.10700
C556        C  0.36766941  0.40177832  0.78282572    -0.10200
C557        C  0.37451893  0.43320039  0.76731766    -0.04100
C558        C  0.36393422  0.45748272  0.77811080    -0.10200
H559        H  0.30488525  0.48327756  0.84989061     0.08000
H560        H  0.33960112  0.99804828  0.80497637     0.08000
H561        H  0.31486350  0.32992618  0.86394221     0.08200
H562        H  0.34964702  0.34422009  0.81878040     0.08200
H563        H  0.25749329  0.38422858  0.91758178     0.04600
H564        H  0.38819882  0.43876731  0.74628396     0.04600
C565        C  0.02407619  0.29377041  0.44152529    -0.10200
C566        C  0.03325885  0.26981372  0.42821457    -0.04100
C567        C  0.02931602  0.23905285  0.44270414    -0.10200
C568        C  0.01484506  0.23153408  0.47137335     0.10700
C569        C  0.00385651  0.25488044  0.48463865    -0.02000
C570        C  0.00862866  0.28616733  0.46965549     0.10500
C571        C  0.99734884  0.30871049  0.48292107    -0.12000
C572        C  0.48203429  0.30059707  0.51103530    -0.12000
C573        C  0.47717658  0.26996523  0.52645242     0.10500
C574        C  0.48853178  0.24680067  0.51337975    -0.02000
C575        C  0.01046498  0.20117756  0.48692477    -0.12200
C576        C  0.49577831  0.19342786  0.51529609    -0.12200
C577        C  0.48488110  0.21620613  0.52876997     0.10700
C578        C  0.47114688  0.20973897  0.55751001    -0.10200
C579        C  0.46029074  0.23286554  0.57016501    -0.04100
C580        C  0.46224570  0.26236379  0.55493505    -0.10200
H581        H  0.00040893  0.33260191  0.47187439     0.08000
H582        H  0.47393708  0.31885925  0.52037907     0.08000
H583        H  0.01849132  0.18290080  0.47749325     0.08200
H584        H  0.49341310  0.16994813  0.52652974     0.08200
H585        H  0.04478016  0.27587879  0.40633944     0.04600
H586        H  0.44946882  0.22738890  0.59225370     0.04600
C587        C  0.21416399  0.25969584  0.44317822    -0.10200
C588        C  0.24627019  0.29147264  0.43425074    -0.04100
C589        C  0.27842819  0.30746722  0.45070114    -0.10200
C590        C  0.27848807  0.29187258  0.47789593     0.10700
C591        C  0.24605958  0.25965450  0.48771809    -0.02000
C592        C  0.21374042  0.24348971  0.47034423     0.10500
C593        C  0.18252836  0.21091603  0.48014245    -0.12000
C594        C  0.18272497  0.19464473  0.50646809    -0.12000
C595        C  0.21423868  0.21004889  0.52391043     0.10500
C596        C  0.24631407  0.24290312  0.51452722    -0.02000
C597        C  0.30993744  0.30738238  0.49540909    -0.12200
C598        C  0.30969966  0.29187010  0.52225888    -0.12200
C599        C  0.27840225  0.25943461  0.53217229     0.10700
C600        C  0.27772329  0.24348451  0.55954947    -0.10200
C601        C  0.24620375  0.21079395  0.56781388    -0.04100
C602        C  0.21467850  0.19371245  0.55061627    -0.10200
H603        H  0.15756967  0.19757907  0.46752744     0.08000
H604        H  0.15797038  0.16964735  0.51302730     0.08000
H605        H  0.33486433  0.33205302  0.48859952     0.08200
H606        H  0.33450459  0.30548695  0.53503866     0.08200
H607        H  0.24689447  0.30285262  0.41301558     0.04600
H608        H  0.24566507  0.19909516  0.58883140     0.04600
C609        C  0.25796085  0.45459525  0.45234117    -0.10200
C610        C  0.22393221  0.44236924  0.43986566    -0.04100
C611        C  0.20171418  0.45573084  0.44881788    -0.10200
C612        C  0.21212515  0.47965950  0.47308049     0.10700
C613        C  0.24592588  0.49047738  0.48730606    -0.02000
C614        C  0.26917727  0.47806799  0.47674178     0.10500
C615        C  0.30265500  0.48927286  0.49082593    -0.12000
C616        C  0.31307351  0.01215845  0.51524936    -0.12000
C617        C  0.29074644  0.02526486  0.52581942     0.10500
C618        C  0.25715889  0.01480073  0.51138143    -0.02000
C619        C  0.19001117  0.49311541  0.48341989    -0.12200
C620        C  0.20044826  0.01603658  0.50779789    -0.12200
C621        C  0.23387728  0.02717325  0.52194828     0.10700
C622        C  0.24474617  0.05011513  0.54666699    -0.10200
C623        C  0.27840483  0.06166011  0.55961300    -0.04100
C624        C  0.30060408  0.04828724  0.55063324    -0.10200
H625        H  0.32073683  0.47994518  0.48322597     0.08000
H626        H  0.33884725  0.01982156  0.52569761     0.08000
H627        H  0.16418151  0.48535793  0.47302785     0.08200
H628        H  0.18236794  0.02538196  0.51536153     0.08200
H629        H  0.21656753  0.42546278  0.42037119     0.04600
H630        H  0.28539093  0.07794525  0.57943105     0.04600
C631        C  0.00255402  0.03465704  0.99972958     0.02900
C632        C  0.03611110  0.03474414  0.99772342     0.02900
C633        C  0.03551422  0.00133236  0.99324157     0.02900
C634        C  0.00156377  0.46800852  0.98894850     0.02900
C635        C  0.46871300  0.46820659  0.98874183     0.02900
C636        C  0.46875921  0.00071959  0.99468949     0.02900
C637        C  0.33664551  0.13547803  0.34903709     0.02900
C638        C  0.36995771  0.16825723  0.34200348     0.02900
C639        C  0.36949410  0.20002237  0.33386786     0.02900
C640        C  0.33570810  0.19856108  0.33005210     0.02900
C641        C  0.30198934  0.16556943  0.33589111     0.02900
C642        C  0.30254575  0.13421257  0.34635499     0.02900
C643        C  0.16539733  0.36748095  0.65429950     0.02900
C644        C  0.19819846  0.36657181  0.65114081     0.02900
C645        C  0.19832682  0.33426399  0.65852840     0.02900
C646        C  0.16556691  0.30277250  0.66854382     0.02900
C647        C  0.13235615  0.30296601  0.67023028     0.02900
C648        C  0.13286923  0.33612907  0.66514898     0.02900
C649        C  0.06840299  0.31801008  0.65634559    -0.15800
C650        C  0.09932425  0.33791196  0.67144094    -0.31000
H651        H  0.06840968  0.30164188  0.63807709     0.13200
H652        H  0.09968058  0.35457281  0.68952756     0.13800
C653        C  0.25501322  0.33843800  0.67670776    -0.15800
C654        C  0.23278450  0.33329446  0.65430178    -0.31000
H655        H  0.24725596  0.34263697  0.69835049     0.13200
H656        H  0.24097216  0.33104543  0.63229001     0.13800
C657        C  0.26227244  0.41324641  0.66153378    -0.15800
C658        C  0.23366637  0.40074891  0.64329777    -0.31000
H659        H  0.25780344  0.39966044  0.68236341     0.13200
H660        H  0.23572712  0.41582836  0.62364864     0.13800
C661        C  0.06813760  0.25773050  0.68839513    -0.15800
C662        C  0.09666545  0.26692255  0.67016572    -0.31000
H663        H  0.07144331  0.27461516  0.70726235     0.13200
H664        H  0.09324755  0.24790392  0.65285449     0.13800
C665        C  0.17885788  0.25351815  0.66049394    -0.15800
C666        C  0.16540465  0.26917852  0.67785602    -0.31000
H667        H  0.18957241  0.26531553  0.63916595     0.13200
H668        H  0.15042828  0.25512704  0.69752135     0.13800
C669        C  0.15649893  0.41943307  0.66407855    -0.15800
C670        C  0.16514307  0.40102200  0.64512293    -0.31000
H671        H  0.15050273  0.40996566  0.68647983     0.13200
H672        H  0.17462383  0.41187893  0.62336839     0.13800
C673        C  0.02165020  0.10012124  0.99154774    -0.15800
C674        C  0.00190367  0.06889424  0.00683376    -0.31000
H675        H  0.03806651  0.10036894  0.97316903     0.13200
H676        H  0.48259692  0.06684607  0.02293563     0.13800
C677        C  0.50192257  0.43326785  0.98379198    -0.15800
C678        C  0.49029269  0.40738733  0.00459640    -0.31000
H679        H  0.51133833  0.42920695  0.96283338     0.13200
H680        H  0.48328408  0.41323419  0.02590690     0.13800
C681        C  0.07197429  0.07000313  0.99801489    -0.15800
C682        C  0.08166250  0.09517166  0.01923564    -0.31000
H683        H  0.08955261  0.07648301  0.97891268     0.13200
H684        H  0.06601030  0.08833743  0.03943403     0.13800
C685        C  0.41905008  0.40649892  0.00106248    -0.15800
C686        C  0.43371975  0.43376722  0.98163442    -0.31000
H687        H  0.43121751  0.41167162  0.02252282     0.13200
H688        H  0.42109391  0.43080311  0.96055476     0.13800
C689        C  0.42383993  0.01817205  0.97962563    -0.15800
C690        C  0.43312618  0.99924279  0.99740017    -0.31000
H691        H  0.44211189  0.03427971  0.96190141     0.13200
H692        H  0.41328554  0.98029343  0.01320071     0.13800
C693        C  0.08012812  0.48664630  0.01423313    -0.15800
C694        C  0.07025803  0.50094122  0.99242619    -0.31000
H695        H  0.06251421  0.47525525  0.03329607     0.13200
H696        H  0.08903908  0.51486505  0.97438248     0.13800
C697        C  0.33712498  0.10167058  0.35744798    -0.15800
C698        C  0.35336367  0.08834491  0.34021059    -0.31000
H699        H  0.32096163  0.08573747  0.37608184     0.13200
H700        H  0.36617198  0.10258494  0.32001314     0.13800
C701        C  0.31745412  0.24463404  0.33646293    -0.15800
C702        C  0.33622421  0.23255453  0.32117321    -0.31000
H703        H  0.30194824  0.22946245  0.35560785     0.13200
H704        H  0.35547978  0.24986583  0.30436289     0.13800
C705        C  0.23971260  0.08568127  0.33361584    -0.15800
C706        C  0.26737309  0.09924568  0.35271929    -0.31000
H707        H  0.24406950  0.09909333  0.31264467     0.13200
H708        H  0.26446348  0.08461264  0.37282210     0.13800
C709        C  0.40459696  0.23598093  0.33529528    -0.15800
C710        C  0.43063099  0.24746097  0.31447099    -0.31000
H711        H  0.41053695  0.25111002  0.35561660     0.13200
H712        H  0.42425390  0.23383347  0.29345791     0.13800
C713        C  0.23942627  0.15459550  0.34902285    -0.15800
C714        C  0.26648393  0.16401144  0.32922284    -0.31000
H715        H  0.24374378  0.14957429  0.37139088     0.13200
H716        H  0.26357184  0.17278147  0.30772593     0.13800
C717        C  0.40618325  0.17072865  0.34500081    -0.15800
C718        C  0.42724554  0.17524200  0.32142719    -0.31000
H719        H  0.41559447  0.16948656  0.36664723     0.13200
H720        H  0.41614879  0.17344609  0.29984443     0.13800
O721        O  0.14670376  0.68504346  0.31198009    -0.87700
C722        C  0.04752588  0.59081064  0.30162229     0.88300
Mg723      Mg  0.17055640  0.70861886  0.35367402     1.58100
O724        O  0.05282173  0.67506999  0.28469129    -0.87500
O725        O  0.13540039  0.69768890  0.26860158    -0.74800
C726        C  0.04030271  0.71617411  0.42596355     0.93300
O727        O  0.11016471  0.61666570  0.35510073    -0.74600
O728        O  0.06951945  0.71614723  0.43220432    -0.82100
Mg729      Mg  0.12901271  0.62850259  0.30694099     1.58000
C730        C  0.46441166  0.68068295  0.32363231     0.93300
O731        O  0.14842324  0.63574805  0.25937442    -0.80400
H732        H  0.07384121  0.72331845  0.26417152    -0.05700
C733        C  0.01735044  0.63443352  0.36886979     0.88200
O734        O  0.15195143  0.75043332  0.34966077    -0.74900
O735        O  0.07551641  0.61912070  0.29361955    -0.87700
O736        O  0.47681708  0.67054710  0.30271862    -0.80500
C737        C  0.48461700  0.60193869  0.23995063     0.93400
C738        C  0.12936748  0.61949930  0.23700027     0.93200
Mg739      Mg  0.04237005  0.71094945  0.35555523     1.58000
O740        O  0.02227586  0.70034941  0.40312733    -0.80400
O741        O  0.06132513  0.72492177  0.30684666    -0.74600
O742        O  0.01808411  0.60904332  0.23589992    -0.80500
O743        O  0.18665849  0.63953684  0.31988055    -0.82200
O744        O  0.15223494  0.73174238  0.42481539    -0.80500
C745        C  0.06310325  0.70817961  0.28424741     0.87700
O746        O  0.09634285  0.72272946  0.36773868    -0.87600
O747        O  0.02715420  0.65568923  0.34799331    -0.87700
O748        O  0.03764925  0.64188471  0.39111081    -0.74800
Mg749      Mg  0.07675586  0.65097641  0.25634772     1.58000
O750        O  0.47561333  0.61224208  0.26288914    -0.82200
H751        H  0.18331996  0.72985773  0.29004488    -0.05900
O752        O  0.12050195  0.66798572  0.37551596    -0.87400
H753        H  0.09966074  0.62095691  0.39769406    -0.05700
H754        H  0.12179867  0.77490089  0.35435043    -0.05900
C755        C  0.10997418  0.63491896  0.37711395     0.87600
C756        C  0.15641718  0.70526213  0.29040829     0.88200
C757        C  0.12324805  0.75046860  0.35756448     0.88300
H758        H  0.99096643  0.60921966  0.36832647    -0.05900
O759        O  0.01833461  0.59081019  0.30788349    -0.74900
Mg760      Mg  0.09538567  0.68978487  0.40419063     1.58000
H761        H  0.04807514  0.56575806  0.30381119    -0.05900
C762        C  0.20608492  0.65602625  0.34209823     0.93300
O763        O  0.19604872  0.73343504  0.39663933    -0.82100
C764        C  0.18560122  0.74060071  0.42042970     0.93300
O765        O  0.10119171  0.62140309  0.23029345    -0.82100
Mg766      Mg  0.00235087  0.63500119  0.30581850     1.58200
O767        O  0.19806827  0.67466020  0.35896555    -0.80500
O768        O  0.48344411  0.69529754  0.34617048    -0.82100
C769        C  0.13857256  0.59495160  0.22076517    -0.10200
C770        C  0.13152333  0.56272502  0.23494040    -0.04100
C771        C  0.14107712  0.53855881  0.22237480    -0.10200
C772        C  0.15954871  0.54720297  0.19542819     0.10700
C773        C  0.16777760  0.58011774  0.18114182    -0.02000
C774        C  0.15647934  0.60366108  0.19339182     0.10500
C775        C  0.16411878  0.63550994  0.17822596    -0.12000
C776        C  0.18294052  0.64436396  0.15168615    -0.12000
C777        C  0.19545781  0.62210237  0.13990832     0.10500
C778        C  0.18783278  0.58973942  0.15468643    -0.02000
C779        C  0.17069748  0.52419915  0.18274160    -0.12200
C780        C  0.19016150  0.53361119  0.15657188    -0.12200
C781        C  0.19933273  0.56643375  0.14245902     0.10700
C782        C  0.21956851  0.57675769  0.11621437    -0.10200
C783        C  0.22829621  0.60932906  0.10273990    -0.04100
C784        C  0.21518355  0.63093915  0.11347757    -0.10200
H785        H  0.15565936  0.65383932  0.18680741     0.08000
H786        H  0.18833034  0.66918766  0.14071869     0.08000
H787        H  0.16449816  0.99872091  0.19306156     0.08200
H788        H  0.19853196  0.51533712  0.14767937     0.08200
H789        H  0.11817111  0.55621889  0.25614746     0.04600
H790        H  0.24240466  0.61610881  0.08177180     0.04600
C791        C  0.45354650  0.57747768  0.22044207    -0.10200
C792        C  0.42607776  0.54556836  0.23423751    -0.04100
C793        C  0.39164859  0.52305875  0.22189644    -0.10200
C794        C  0.38490366  0.53031361  0.19364174     0.10700
C795        C  0.41152347  0.56299796  0.17917150    -0.02000
C796        C  0.44575203  0.58734283  0.19274313     0.10500
C797        C  0.47002035  0.62072564  0.17851906    -0.12000
C798        C  0.46098691  0.62989435  0.15152559    -0.12000
C799        C  0.42766928  0.60570086  0.13745550     0.10500
C800        C  0.40310279  0.57156565  0.15144638    -0.02000
C801        C  0.35190026  0.50580606  0.17976832    -0.12200
C802        C  0.34519565  0.51259426  0.15175495    -0.12200
C803        C  0.37025692  0.54518736  0.13739916     0.10700
C804        C  0.36344842  0.55172671  0.10901144    -0.10200
C805        C  0.38616765  0.58570436  0.09607984    -0.04100
C806        C  0.41794381  0.61330955  0.10953798    -0.10200
H807        H  0.99614447  0.64126908  0.18802018     0.08000
H808        H  0.48043207  0.65587475  0.14152433     0.08000
H809        H  0.33133428  0.98082814  0.19037751     0.08200
H810        H  0.31973986  0.49237120  0.14162492     0.08200
H811        H  0.43073778  0.53931767  0.25613393     0.04600
H812        H  0.37968840  0.59012208  0.07418934     0.04600
O813        O  0.02421301  0.86852561  0.34577186    -0.87700
C814        C  0.12024325  0.87664127  0.36533289     0.88300
Mg815      Mg  0.00509326  0.86125938  0.30185962     1.58100
O816        O  0.11507620  0.95707404  0.37701313    -0.87500
O817        O  0.03071567  0.89680511  0.38713294    -0.74800
C818        C  0.13208135  0.00522655  0.23886177     0.93300
O819        O  0.06464304  0.83403314  0.31069138    -0.74600
O820        O  0.10559551  0.97422790  0.23116610    -0.82100
Mg821      Mg  0.03995637  0.83060995  0.35704730     1.58000
C822        C  0.20380821  0.55231073  0.33759642     0.93300
O823        O  0.01548521  0.82388393  0.40220145    -0.80400
H824        H  0.09334343  0.98374778  0.39667789    -0.05700
C825        C  0.15900195  0.95223965  0.29674082     0.88200
O826        O  0.01687948  0.92059086  0.30233211    -0.74900
O827        O  0.09181056  0.87664966  0.37096604    -0.87700
O828        O  0.19764649  0.53035497  0.35855867    -0.80500
C829        C  0.17502192  0.95171662  0.42686231     0.93400
C830        C  0.03291533  0.82711352  0.42535140     0.93200
Mg831      Mg  0.12628816  0.99831990  0.30712703     1.58000
O832        O  0.15004393  0.50840592  0.26159518    -0.80400
O833        O  0.10484401  0.99573110  0.35375073    -0.74600
O834        O  0.14169131  0.92542398  0.42839238    -0.80500
O835        O  0.48271042  0.78412437  0.34440090    -0.82200
O836        O  0.02861976  0.90806754  0.23860605    -0.80500
C837        C  0.10431541  0.97914593  0.37685795     0.87700
O838        O  0.07576921  0.95161344  0.29423990    -0.87600
O839        O  0.14590961  0.96201464  0.31644054    -0.87700
O840        O  0.14094560  0.93732675  0.27374200    -0.74800
Mg841      Mg  0.08716233  0.90956844  0.40498911     1.58000
O842        O  0.18809887  0.97234594  0.40469737    -0.82200
H843        H  0.98598771  0.87865516  0.36118188    -0.05900
O844        O  0.05876820  0.87545855  0.28707493    -0.87400
H845        H  0.08207498  0.84932663  0.26887458    -0.05700
H846        H  0.04651454  0.97623407  0.29920486    -0.05900
C847        C  0.06914996  0.85304466  0.28790231     0.87600
C848        C  0.01238907  0.88108395  0.36434583     0.88200
C849        C  0.04663177  0.95084545  0.29849858     0.88300
H850        H  0.18626288  0.95646837  0.29909983    -0.05900
O851        O  0.14990392  0.90626065  0.35973224    -0.74900
Mg852      Mg  0.08311639  0.92269496  0.25876307     1.58000
H853        H  0.11969231  0.85091221  0.36458238    -0.05900
C854        C  0.46801822  0.77894373  0.31955605     0.93300
O855        O  0.48486670  0.85531057  0.25776770    -0.82100
C856        C  0.49601007  0.88014228  0.23871506     0.93300
O857        O  0.06031557  0.85781556  0.43278277    -0.82100
Mg858      Mg  0.16720694  0.96717444  0.35944871     1.58200
O859        O  0.48497141  0.80107036  0.29900368    -0.80500
O860        O  0.18056651  0.54530129  0.31788028    -0.82100
O861        O  0.36713998  0.87851501  0.32962205    -0.87700
C862        C  0.29831844  0.89466351  0.27737733     0.88300
Mg863      Mg  0.34972304  0.85554835  0.37282941     1.58100
O864        O  0.37129411  0.97265452  0.30980347    -0.87500
O865        O  0.41062323  0.92611433  0.30648305    -0.74800
C866        C  0.28264566  0.94827365  0.43439487     0.93300
O867        O  0.27817271  0.82902231  0.32663732    -0.74600
O868        O  0.28091086  0.91768273  0.43634611    -0.82100
Mg869      Mg  0.32752287  0.84779943  0.29561542     1.58000
C870        C  0.34927739  0.55191117  0.34403564     0.93300
O871        O  0.37092022  0.86015283  0.26008717    -0.80400
H872        H  0.42503889  0.00930404  0.31339267    -0.05700
C873        C  0.27233505  0.93154260  0.35039826     0.88200
O874        O  0.38122928  0.91317863  0.39383897    -0.74900
O875        O  0.32721373  0.89688599  0.28526254    -0.87700
O876        O  0.35172690  0.53639438  0.32116589    -0.80500
C877        C  0.36275927  0.99572590  0.24125583     0.93400
C878        C  0.38744634  0.88305484  0.23951266     0.93200
Mg879      Mg  0.34465031  0.98478959  0.38020171     1.58000
O880        O  0.30051976  0.97138745  0.41435070    -0.80400
O881        O  0.39467729  0.00412754  0.34950533    -0.74600
O882        O  0.35542759  0.96286077  0.24115774    -0.80500
O883        O  0.32890114  0.79623981  0.30743960    -0.82200
O884        O  0.31746267  0.86935010  0.43515834    -0.80500
C885        C  0.39813989  0.99590784  0.32354768     0.87700
O886        O  0.34499902  0.93561470  0.39056814    -0.87600
O887        O  0.30526007  0.95424147  0.34620428    -0.87700
O888        O  0.26199918  0.90529313  0.36840928    -0.74800
Mg889      Mg  0.38017530  0.94358735  0.27507543     1.58000
O890        O  0.34980042  0.50668283  0.26102136    -0.82200
H891        H  0.42043520  0.89738290  0.33667141    -0.05900
O892        O  0.30166404  0.85931293  0.36687960    -0.87400
H893        H  0.24784189  0.82318830  0.36281586    -0.05700
H894        H  0.39427921  0.96325478  0.40949513    -0.05900
C895        C  0.27481955  0.83653203  0.35282386     0.87600
C896        C  0.40011426  0.90018640  0.32477843     0.88200
C897        C  0.37415950  0.93849049  0.39854189     0.88300
H898        H  0.25188343  0.93367168  0.33808886    -0.05900
O899        O  0.29203473  0.92051201  0.28211608    -0.74900
Mg900      Mg  0.29205221  0.88823537  0.40077694     1.58000
H901        H  0.27785277  0.87013820  0.26636451    -0.05900
C902        C  0.32280251  0.78130629  0.33245311     0.93300
O903        O  0.32673061  0.82708299  0.41671032    -0.82100
C904        C  0.31145879  0.83685137  0.43560715     0.93300
O905        O  0.38936958  0.91378331  0.23847041    -0.82100
Mg906      Mg  0.32424095  0.97796290  0.30362684     1.58200
O907        O  0.32220325  0.79748895  0.35550961    -0.80500
O908        O  0.34266193  0.53647617  0.36886741    -0.82100
C909        C  0.46858708  0.87798598  0.21912513    -0.10200
C910        C  0.44560623  0.88853082  0.23152919    -0.04100
C911        C  0.41137330  0.87710418  0.22004997    -0.10200
C912        C  0.40095914  0.85756511  0.19342326     0.10700
C913        C  0.42522518  0.84799529  0.17982397    -0.02000
C914        C  0.45899306  0.85770024  0.19313335     0.10500
C915        C  0.48194223  0.84649456  0.18050358    -0.12000
C916        C  0.47217616  0.82646371  0.15469141    -0.12000
C917        C  0.43912789  0.81695917  0.14071253     0.10500
C918        C  0.41529411  0.82775188  0.15349828    -0.02000
C919        C  0.36746552  0.84742738  0.18007631    -0.12200
C920        C  0.35829834  0.82887471  0.15347953    -0.12200
C921        C  0.38184056  0.81886679  0.13988770     0.10700
C922        C  0.37321141  0.80078681  0.11278230    -0.10200
C923        C  0.39706915  0.79056232  0.10024615    -0.04100
C924        C  0.42958786  0.79765838  0.11399846    -0.10200
H925        H  0.00778392  0.85259136  0.18918902     0.08000
H926        H  0.49087657  0.81869891  0.14564718     0.08000
H927        H  0.34855700  0.85446988  0.18985440     0.08200
H928        H  0.33249911  0.82231998  0.14367142     0.08200
H929        H  0.45300305  0.90280953  0.25233979     0.04600
H930        H  0.39031129  0.77705149  0.07919749     0.04600
O931        O  0.21391595  0.53227886  0.01088525    -0.87700
C932        C  0.23366668  0.96210975  0.05816390     0.88300
Mg933      Mg  0.18885323  0.51606768  0.96922743     1.58100
O934        O  0.31114039  0.53497601  0.02412155    -0.87500
O935        O  0.26503287  0.57482170  0.03079364    -0.74800
C936        C  0.27738200  0.94856423  0.90031641     0.93300
O937        O  0.16360368  0.94154344  0.01365587    -0.74600
O938        O  0.24658568  0.94665322  0.90005821    -0.82100
Mg939      Mg  0.18529090  0.99046400  0.04467119     1.58000
C940        C  0.38734175  0.51439697  0.98161126     0.93300
O941        O  0.20065703  0.53380212  0.07903855    -0.80400
H942        H  0.34753199  0.58881316  0.02123976    -0.05700
C943        C  0.26648071  0.93715598  0.98321503     0.88200
O944        O  0.24506207  0.54690668  0.94577137    -0.74900
O945        O  0.23558190  0.99098171  0.05072945    -0.87700
O946        O  0.37253464  0.51027852  0.00665157    -0.80500
C947        C  0.33544511  0.52310571  0.09035644     0.93400
C948        C  0.22513496  0.55206259  0.09786723     0.93200
Mg949      Mg  0.31736068  0.51152970  0.95250410     1.58000
O950        O  0.30208821  0.96754514  0.91877957    -0.80400
O951        O  0.33894842  0.56063843  0.98346156    -0.74600
O952        O  0.30263922  0.51608668  0.09155032    -0.80500
O953        O  0.13177892  0.99007350  0.03768237    -0.82200
O954        O  0.20172716  0.98613780  0.90664163    -0.80500
C955        C  0.33333334  0.56252634  0.01035420     0.87700
O956        O  0.26740002  0.51060255  0.94698429    -0.87600
O957        O  0.28990257  0.96993263  0.98678171    -0.87700
O958        O  0.23828736  0.92716348  0.96756120    -0.74800
Mg959      Mg  0.28339109  0.54343754  0.06014194     1.58000
O960        O  0.34606615  0.51064699  0.06982725    -0.82200
H961        H  0.23404183  0.58577400  0.00394153    -0.05900
O962        O  0.19264355  0.96747948  0.97351905    -0.87400
H963        H  0.15556730  0.91377141  0.97575420    -0.05700
H964        H  0.29405105  0.55969923  0.92756630    -0.05900
C965        C  0.16980836  0.93988882  0.98688011     0.87600
C966        C  0.23708644  0.56501449  0.01489742     0.88200
C967        C  0.26993646  0.53971941  0.93947793     0.88300
H968        H  0.26951222  0.91652424  0.99440484    -0.05900
O969        O  0.25914700  0.95568005  0.05199683    -0.74900
Mg970      Mg  0.21998081  0.95829934  0.93787369     1.58000
H971        H  0.20974146  0.94180503  0.07007513    -0.05900
C972        C  0.11633676  0.98930761  0.01383594     0.93300
O973        O  0.15859802  0.99261411  0.92758550    -0.82100
C974        C  0.16899336  0.97918521  0.90771559     0.93300
O975        O  0.25598499  0.55403023  0.09805419    -0.82100
Mg976      Mg  0.31548466  0.98664485  0.02821643     1.58200
O977        O  0.13194037  0.99274440  0.98933518    -0.80500
O978        O  0.37092155  0.51331777  0.95833728    -0.82100
O979        O  0.20052710  0.68920349  0.98607398    -0.87700
C980        C  0.20914573  0.78672349  0.97183060     0.88300
Mg981      Mg  0.19693537  0.66839854  0.02916424     1.58100
O982        O  0.28909410  0.78121938  0.95825525    -0.87500
O983        O  0.22780242  0.69711277  0.94409777    -0.74800
C984        C  0.34047248  0.79313205  0.09597194     0.93300
O985        O  0.16848996  0.72786908  0.02588536    -0.74600
O986        O  0.30920692  0.76602965  0.10256625    -0.82100
Mg987      Mg  0.16260097  0.70644068  0.97831021     1.58000
C988        C  0.38508062  0.87159305  0.99753196     0.93300
O989        O  0.15060697  0.68566945  0.93107087    -0.80400
H990        H  0.31765595  0.76318251  0.93623654    -0.05700
C991        C  0.28590174  0.82227362  0.03992085     0.88200
O992        O  0.25707741  0.68281082  0.02546535    -0.74900
O993        O  0.20849908  0.75840873  0.96464621    -0.87700
O994        O  0.36384230  0.86307312  0.97573269    -0.80500
C995        C  0.28299224  0.84228008  0.91011618     0.93400
C996        C  0.15767763  0.70398960  0.90757672     0.93200
Mg997      Mg  0.33397503  0.79252613  0.02680602     1.58000
O998        O  0.34453092  0.81251387  0.07377847    -0.80400
O999        O  0.33141400  0.77433685  0.97890259    -0.74600
O1000       O  0.25694409  0.80913271  0.90861335    -0.80500
O1001       O  0.11689822  0.64884928  0.99097303    -0.82200
O1002       O  0.24404736  0.69000825  0.09366981    -0.80500
C1003       C  0.31282535  0.77263524  0.95674168     0.87700
O1004       O  0.28816727  0.74030349  0.03849335    -0.87600
O1005       O  0.29618533  0.81080954  0.01942229    -0.87700
O1006       O  0.27128441  0.80272369  0.06243155    -0.74800
Mg1007     Mg  0.24134731  0.75471145  0.92981935     1.58000
O1008       O  0.30417062  0.85520091  0.93186900    -0.82200
H1009       H  0.20788122  0.65046402  0.96802637    -0.05900
O1010       O  0.21070040  0.72081480  0.04680547    -0.87400
H1011       H  0.18458327  0.74229318  0.06786276    -0.05700
H1012       H  0.31278621  0.71218861  0.02823412    -0.05900
C1013       C  0.18798568  0.73081818  0.04786292     0.87600
C1014       C  0.21163202  0.67756519  0.96628425     0.88200
C1015       C  0.28731194  0.71196263  0.03087967     0.88300
H1016       H  0.28943972  0.84932382  0.03871107    -0.05900
O1017       O  0.23910388  0.81571786  0.97797990    -0.74900
Mg1018     Mg  0.25795554  0.74451417  0.07492204     1.58000
H1019       H  0.18362217  0.78656636  0.97359218    -0.05900
C1020       C  0.11297365  0.63232484  0.01492030     0.93300
O1021       O  0.19300181  0.64586367  0.07325084    -0.82100
C1022       C  0.21687671  0.65756365  0.09306712     0.93300
O1023       O  0.18990019  0.73026733  0.90163471    -0.82100
Mg1024     Mg  0.30019184  0.83315569  0.97669143     1.58200
O1025       O  0.13602743  0.64744719  0.03512966    -0.80500
O1026       O  0.37906779  0.84896317  0.01762814    -0.82100
O1027       O  0.01572293  0.80967039  0.01833813    -0.87700
C1028       C  0.42427068  0.70905746  0.03231313     0.88300
Mg1029     Mg  0.03570503  0.83762847  0.97637097     1.58100
O1030       O  0.00923530  0.71472486  0.04397942    -0.87500
O1031       O  0.03032022  0.79672709  0.06046004    -0.74800
C1032       C  0.04760637  0.71365889  0.90146483     0.93300
O1033       O  0.44520286  0.77320362  0.98014949    -0.74600
O1034       O  0.04667623  0.74232810  0.89487247    -0.85700
Mg1035     Mg  0.46052098  0.78992057  0.02831685     1.58000
C1036       C  0.02053468  0.63383283  0.99642117     0.93300
O1037       O  0.47187041  0.80832190  0.07582573    -0.80400
H1038       H  0.05899955  0.73901595  0.06216625    -0.05700
C1039       C  0.46581318  0.68530705  0.95991158     0.88200
O1040       O  0.08059182  0.82294918  0.97484228    -0.74900
O1041       O  0.45333516  0.73679353  0.03891163    -0.87700
O1042       O  0.50163298  0.63588864  0.01683396    -0.80500
C1043       C  0.44114600  0.64515452  0.08987134     0.93400
C1044       C  0.45435811  0.78842427  0.09753792     0.93200
Mg1045     Mg  0.04394711  0.71433454  0.97030132     1.58000
O1046       O  0.03012817  0.69479281  0.92350994    -0.80400
O1047       O  0.05972606  0.73140066  0.01851313    -0.74600
O1048       O  0.44710317  0.67753942  0.09503762    -0.80500
O1049       O  0.46935160  0.84635844  0.01973733    -0.82200
O1050       O  0.05680271  0.82429053  0.90270555    -0.80500
C1051       C  0.04304036  0.72849230  0.04251808     0.87700
O1052       O  0.05072198  0.76676019  0.95966465    -0.87600
O1053       O  0.48770810  0.69394217  0.98023781    -0.87700
O1054       O  0.47222645  0.70688771  0.93850375    -0.74800
Mg1055     Mg  0.48648032  0.73738516  0.07465731     1.58000
O1056       O  0.44993551  0.63713014  0.06554526    -0.82200
H1057       H  0.06172340  0.84525597  0.03927345    -0.05900
O1058       O  0.49543591  0.78895603  0.95475730    -0.87400
H1059       H  0.44577793  0.76558514  0.93651356    -0.05700
H1060       H  0.10487395  0.79321509  0.96667823    -0.05900
C1061       C  0.46175860  0.77584045  0.95617367     0.87600
C1062       C  0.03702905  0.81844217  0.03909906     0.88200
C1063       C  0.07986451  0.79414591  0.96670086     0.88300
H1064       H  0.44083782  0.65871352  0.96016019    -0.05900
O1065       O  0.42379387  0.68015030  0.02479849    -0.74900
Mg1066     Mg  0.01731109  0.76527480  0.92375189     1.58000
H1067       H  0.39903169  0.70955558  0.03255757    -0.05900
C1068       C  0.48555835  0.87035251  0.00001923     0.93300
O1069       O  0.05580206  0.86528121  0.93257949    -0.82100
C1070       C  0.06386616  0.85695385  0.90807268     0.93300
O1071       O  0.45594116  0.75983795  0.10339696    -0.82100
Mg1072     Mg  0.46868267  0.66528252  0.02176401     1.58200
O1073       O  0.00160265  0.86545617  0.97819677    -0.80500
O1074       O  0.03711330  0.65932682  0.97802862    -0.82100
O1075       O  0.19859919  0.55152788  0.65313326    -0.87700
C1076       C  0.12517078  0.55979133  0.60200357     0.88300
Mg1077     Mg  0.18184822  0.52811479  0.69593953     1.58100
O1078       O  0.19659926  0.64148988  0.63185671    -0.87500
O1079       O  0.24022007  0.59956970  0.62915526    -0.74800
C1080       C  0.11518030  0.61812272  0.76163125     0.93300
O1081       O  0.10986629  0.49799295  0.65183424    -0.74600
O1082       O  0.11482769  0.58818360  0.76341066    -0.82100
Mg1083     Mg  0.15932345  0.51806089  0.62018869     1.58000
C1084       C  0.17356547  0.71714589  0.66597754     0.93300
O1085       O  0.20334775  0.53302429  0.58550190    -0.80400
H1086       H  0.25032562  0.67840117  0.63520512    -0.05700
C1087       C  0.09961929  0.59890479  0.67754692     0.88200
O1088       O  0.21339341  0.58561557  0.71713444    -0.74900
O1089       O  0.15560276  0.56487812  0.60879230    -0.87700
O1090       O  0.17160099  0.69913429  0.64342005    -0.80500
C1091       C  0.18212723  0.66210500  0.56440690     0.93400
C1092       C  0.21953513  0.55556494  0.56471084     0.93200
Mg1093     Mg  0.17284896  0.65356396  0.70406859     1.58000
O1094       O  0.13035606  0.64045594  0.74046119    -0.80400
O1095       O  0.22081502  0.67241310  0.67184119    -0.74600
O1096       O  0.17879072  0.63062589  0.56423491    -0.80500
O1097       O  0.16520980  0.96870650  0.63268034    -0.82200
O1098       O  0.15079860  0.54066379  0.75887437    -0.80500
C1099       C  0.22356924  0.66479854  0.64555833     0.87700
O1100       O  0.17560157  0.60627048  0.71523427    -0.87600
O1101       O  0.13226275  0.62011461  0.67135545    -0.87700
O1102       O  0.09027887  0.57393116  0.69649865    -0.74800
Mg1103     Mg  0.20705821  0.61374710  0.59760509     1.58000
O1104       O  0.16462004  0.66924861  0.58315913    -0.82200
H1105       H  0.25244933  0.57318693  0.65984787    -0.05900
O1106       O  0.13308705  0.53091106  0.69103212    -0.87400
H1107       H  0.07965393  0.49285585  0.68805524    -0.05700
H1108       H  0.22536656  0.63517840  0.73326669    -0.05900
C1109       C  0.10641006  0.50675229  0.67764998     0.87600
C1110       C  0.23119881  0.57436483  0.64792702     0.88200
C1111       C  0.20544351  0.61017580  0.72246847     0.88300
H1112       H  0.07862545  0.60132502  0.66636454    -0.05900
O1113       O  0.11609409  0.58345781  0.60755211    -0.74900
Mg1114     Mg  0.12367488  0.55865230  0.72642724     1.58000
H1115       H  0.10557496  0.53433202  0.59158039    -0.05900
C1116       C  0.15873792  0.95447785  0.65797406     0.93300
O1117       O  0.15915382  0.49880802  0.73841755    -0.82100
C1118       C  0.14442897  0.50814127  0.75794383     0.93300
O1119       O  0.21883488  0.58487186  0.56181224    -0.82100
Mg1120     Mg  0.14605944  0.64148367  0.62757532     1.58200
O1121       O  0.15435974  0.97016809  0.67974562    -0.80500
O1122       O  0.16967083  0.70409560  0.69156040    -0.82100
C1123       C  0.07183068  0.70339901  0.88581079    -0.10200
C1124       C  0.10310817  0.70901094  0.90062431    -0.04100
C1125       C  0.12649302  0.69767961  0.88912241    -0.10200
C1126       C  0.11872143  0.68033626  0.86165756     0.10700
C1127       C  0.08610096  0.67267027  0.84707018    -0.02000
C1128       C  0.06262849  0.68429634  0.85907812     0.10500
C1129       C  0.03019878  0.67567669  0.84441875    -0.12000
C1130       C  0.02063290  0.65560634  0.81861249    -0.12000
C1131       C  0.04329718  0.64370607  0.80658739     0.10500
C1132       C  0.07655705  0.65271415  0.82061408    -0.02000
C1133       C  0.14211807  0.66982460  0.84864152    -0.12200
C1134       C  0.13358974  0.65189812  0.82174368    -0.12200
C1135       C  0.10070925  0.64264503  0.80765117     0.10700
C1136       C  0.09081360  0.62351990  0.78086813    -0.10200
C1137       C  0.05696234  0.61247757  0.76877440    -0.04100
C1138       C  0.03391631  0.62323508  0.78061951    -0.10200
H1139       H  0.01176161  0.68405907  0.85298123     0.08000
H1140       H  0.49407892  0.64789193  0.80923208     0.08000
H1141       H  0.16728651  0.67554255  0.85913638     0.08200
H1142       H  0.15239610  0.64445754  0.81237327     0.08200
H1143       H  0.10922890  0.72224512  0.92179140     0.04600
H1144       H  0.04996355  0.59824565  0.74793913     0.04600
C1145       C  0.14110877  0.95047923  0.88922120    -0.10200
C1146       C  0.11879479  0.91634341  0.90195096    -0.04100
C1147       C  0.08726591  0.88859346  0.88831549    -0.10200
C1148       C  0.07801226  0.89586079  0.86005095     0.10700
C1149       C  0.10229044  0.93029493  0.84635908    -0.02000
C1150       C  0.13427358  0.95722526  0.86099780     0.10500
C1151       C  0.15861008  0.99066465  0.84740204    -0.12000
C1152       C  0.15235785  0.99760301  0.81940757    -0.12000
C1153       C  0.12069157  0.97206800  0.80455350     0.10500
C1154       C  0.09450796  0.93858557  0.81829458    -0.02000
C1155       C  0.04548058  0.87105822  0.84529538    -0.12200
C1156       C  0.03719917  0.87974393  0.81775198    -0.12200
C1157       C  0.06138708  0.91334666  0.80373580     0.10700
C1158       C  0.05476071  0.92261546  0.77531404    -0.10200
C1159       C  0.08224015  0.95499215  0.76206680    -0.04100
C1160       C  0.11514686  0.97907723  0.77593446    -0.10200
H1161       H  0.18325543  0.01153585  0.85808223     0.08000
H1162       H  0.17223181  0.52342040  0.80959386     0.08000
H1163       H  0.02619914  0.84485259  0.85506100     0.08200
H1164       H  0.51132758  0.85922970  0.80834150     0.08200
H1165       H  0.12527021  0.91197120  0.92385642     0.04600
H1166       H  0.07848053  0.96110561  0.73987613     0.04600
O1167       O  0.35567727  0.53508088  0.68282278    -0.87700
C1168       C  0.45687680  0.54900425  0.69791920     0.88300
Mg1169     Mg  0.33464380  0.53263134  0.63977030     1.58100
O1170       O  0.44276132  0.62250972  0.71281217    -0.87500
O1171       O  0.36087776  0.55829395  0.72610186    -0.74800
C1172       C  0.46521759  0.67800908  0.57495381     0.93300
O1173       O  0.39785313  0.50529141  0.64273796    -0.74600
O1174       O  0.43950565  0.64603650  0.56810419    -0.82100
Mg1175     Mg  0.37666043  0.49925591  0.68984199     1.58000
C1176       C  0.03193616  0.72472088  0.68260837     0.93300
O1177       O  0.35429936  0.98364243  0.73611368    -0.80400
H1178       H  0.41871676  0.64669452  0.73303078    -0.05700
C1179       C  0.49059137  0.62386000  0.63407557     0.88200
O1180       O  0.35120169  0.59325716  0.64211872    -0.74900
O1181       O  0.42708756  0.54620542  0.70383835    -0.87700
O1182       O  0.01626679  0.70096763  0.70245514    -0.80500
C1183       C  0.00627353  0.62020983  0.76068943     0.93400
C1184       C  0.37193833  0.48944752  0.75982035     0.93200
Mg1185     Mg  0.46011762  0.67194832  0.64468371     1.58000
O1186       O  0.48332594  0.68399219  0.59832229    -0.80400
O1187       O  0.43572449  0.66455788  0.69158356    -0.74600
O1188       O  0.47404909  0.58973868  0.76050762    -0.80500
O1189       O  0.32191596  0.95254747  0.67739859    -0.82200
O1190       O  0.36006989  0.57758830  0.57168474    -0.80500
C1191       C  0.43175442  0.64441520  0.71346446     0.87700
O1192       O  0.40905883  0.62515777  0.62994853    -0.87600
O1193       O  0.47858929  0.63530370  0.65340268    -0.87700
O1194       O  0.47174173  0.60789866  0.61158014    -0.74800
Mg1195     Mg  0.41921456  0.57390653  0.74015988     1.58000
O1196       O  0.01686273  0.64515919  0.74178341    -0.82200
H1197       H  0.31489426  0.53875734  0.70152634    -0.05900
O1198       O  0.38747193  0.54513162  0.62179227    -0.87400
H1199       H  0.40947551  0.51993681  0.60023270    -0.05700
H1200       H  0.37972871  0.64880328  0.63885737    -0.05900
C1201       C  0.39841197  0.52325111  0.62052601     0.87600
C1202       C  0.34248115  0.54366190  0.70321910     0.88200
C1203       C  0.38015152  0.62365752  0.63674052     0.88300
H1204       H  0.51750972  0.62723194  0.63643825    -0.05900
O1205       O  0.48564315  0.58022343  0.69417443    -0.74900
Mg1206     Mg  0.41452456  0.59383869  0.59485781     1.58000
H1207       H  0.45841438  0.52448390  0.69557513    -0.05900
C1208       C  0.29869907  0.94653761  0.65776160     0.93300
O1209       O  0.31359896  0.53003062  0.59464875    -0.82100
C1210       C  0.32677882  0.55132901  0.57284930     0.93300
O1211       O  0.39741359  0.52143196  0.76685772    -0.82100
Mg1212     Mg  0.49702616  0.63944559  0.69743061     1.58200
O1213       O  0.30513483  0.96952287  0.63756807    -0.80500
O1214       O  0.01696843  0.71999536  0.65785268    -0.82100
O1215       O  0.47116091  0.84650310  0.64893968    -0.87700
C1216       C  0.37224255  0.75090002  0.63876821     0.88300
Mg1217     Mg  0.50086807  0.86763756  0.68940872     1.58100
O1218       O  0.37337556  0.83374729  0.62633190    -0.87500
O1219       O  0.45617156  0.86044020  0.60751455    -0.74800
C1220       C  0.37672539  0.87611015  0.76789398     0.93300
O1221       O  0.43736659  0.77484575  0.68870328    -0.74600
O1222       O  0.40650148  0.87665769  0.77319921    -0.82100
Mg1223     Mg  0.45213278  0.79007950  0.64011962     1.58000
C1224       C  0.29047223  0.84006949  0.67344153     0.93300
O1225       O  0.47024014  0.80333755  0.59283899    -0.80400
H1226       H  0.39239765  0.88228360  0.60679292    -0.05700
C1227       C  0.34773003  0.79160468  0.71156590     0.88200
O1228       O  0.48313053  0.91038477  0.69219738    -0.74900
O1229       O  0.39858708  0.78071123  0.63131260    -0.87700
O1230       O  0.29599493  0.82420636  0.65214941    -0.80500
C1231       C  0.30634386  0.76229083  0.58216331     0.93400
C1232       C  0.45106991  0.78549443  0.57118192     0.93200
Mg1233     Mg  0.37217116  0.86849423  0.69941056     1.58000
O1234       O  0.35620026  0.85638668  0.74736589    -0.80400
O1235       O  0.38619219  0.88367295  0.65061737    -0.74600
O1236       O  0.33954976  0.77100901  0.57703810    -0.80500
O1237       O  0.00810843  0.79991991  0.64524332    -0.82200
O1238       O  0.48917556  0.88966033  0.76235484    -0.80500
C1239       C  0.38405309  0.86692612  0.62692337     0.87700
O1240       O  0.42701179  0.87887564  0.70796784    -0.87600
O1241       O  0.35442683  0.81253137  0.69072498    -0.87700
O1242       O  0.37060092  0.79978611  0.73223006    -0.74800
Mg1243     Mg  0.39760256  0.81274980  0.59557457     1.58000
O1244       O  0.29643133  0.76898274  0.60655111    -0.82200
H1245       H  0.50476511  0.89334743  0.62790307    -0.05900
O1246       O  0.45310685  0.82531951  0.71344242    -0.87400
H1247       H  0.43157629  0.77622365  0.73255015    -0.05700
H1248       H  0.45158811  0.93277581  0.70033146    -0.05900
C1249       C  0.44067747  0.79177785  0.71253350     0.87600
C1250       C  0.47858927  0.86788681  0.62833947     0.88200
C1251       C  0.45361846  0.90841528  0.70037818     0.88300
H1252       H  0.32173444  0.76598012  0.71244598    -0.05900
O1253       O  0.34277757  0.74845841  0.64762684    -0.74900
Mg1254     Mg  0.42959981  0.84758823  0.74396576     1.58000
H1255       H  0.37469550  0.72678494  0.63850828    -0.05900
C1256       C  0.03437798  0.81797892  0.66246360     0.93300
O1257       O  0.03165250  0.89021426  0.73141398    -0.82100
C1258       C  0.02336674  0.89862876  0.75580373     0.93300
O1259       O  0.42143447  0.78506180  0.56562717    -0.82100
Mg1260     Mg  0.32526421  0.79113763  0.64968843     1.58200
O1261       O  0.03244770  0.83701960  0.68315404    -0.80500
O1262       O  0.31417186  0.85620334  0.69319178    -0.82100
C1263       C  0.28248435  0.92287026  0.88286778    -0.10200
C1264       C  0.27254277  0.89039848  0.89711109    -0.04100
C1265       C  0.28603035  0.86836037  0.88819352    -0.10200
C1266       C  0.30716971  0.87660836  0.86234610     0.10700
C1267       C  0.31549743  0.90858699  0.84644928    -0.02000
C1268       C  0.30372316  0.93233242  0.85716344     0.10500
C1269       C  0.31346839  0.96472026  0.84207192    -0.12000
C1270       C  0.33348525  0.97315499  0.81619324    -0.12000
C1271       C  0.34491493  0.94974679  0.80486021     0.10500
C1272       C  0.33651834  0.91745701  0.82040539    -0.02000
C1273       C  0.32042717  0.85427084  0.85217144    -0.12200
C1274       C  0.34042434  0.86247875  0.82612937    -0.12200
C1275       C  0.34844696  0.89369855  0.80976336     0.10700
C1276       C  0.36743194  0.90157425  0.78279531    -0.10200
C1277       C  0.37425134  0.93295938  0.76724284    -0.04100
C1278       C  0.36373167  0.95730019  0.77802360    -0.10200
H1279       H  0.30489914  0.98330235  0.84987012     0.08000
H1280       H  0.33970145  0.49814030  0.80506126     0.08000
H1281       H  0.31472768  0.82988249  0.86401183     0.08200
H1282       H  0.34947280  0.84409998  0.81883112     0.08200
H1283       H  0.25737521  0.88426052  0.91756875     0.04600
H1284       H  0.38789443  0.93847262  0.74619634     0.04600
C1285       C  0.02415782  0.79383065  0.44158001    -0.10200
C1286       C  0.03332160  0.76987794  0.42823958    -0.04100
C1287       C  0.02935734  0.73908754  0.44269563    -0.10200
C1288       C  0.01490393  0.73155091  0.47137318     0.10700
C1289       C  0.00395215  0.75490910  0.48467279    -0.02000
C1290       C  0.00873714  0.78621697  0.46971618     0.10500
C1291       C  0.99749080  0.80877057  0.48301057    -0.12000
C1292       C  0.48195351  0.80053513  0.51107558    -0.12000
C1293       C  0.47706828  0.76987012  0.52646185     0.10500
C1294       C  0.48844939  0.74673503  0.51337531    -0.02000
C1295       C  0.01049862  0.70116697  0.48689894    -0.12200
C1296       C  0.49567496  0.69334649  0.51523913    -0.12200
C1297       C  0.48475268  0.71609455  0.52872910     0.10700
C1298       C  0.47095935  0.70955881  0.55745353    -0.10200
C1299       C  0.46009139  0.73266775  0.57012598    -0.04100
C1300       C  0.46209066  0.76221014  0.55492994    -0.10200
H1301       H  0.00056422  0.83268011  0.47198587     0.08000
H1302       H  0.47382776  0.81877054  0.52042871     0.08000
H1303       H  0.01849520  0.68288025  0.47744100     0.08200
H1304       H  0.49326678  0.66982879  0.52644054     0.08200
H1305       H  0.04482756  0.77595912  0.40635977     0.04600
H1306       H  0.44924418  0.72715489  0.59220695     0.04600
C1307       C  0.21412007  0.75966428  0.44309884    -0.10200
C1308       C  0.24623201  0.79144134  0.43417786    -0.04100
C1309       C  0.27837558  0.80744784  0.45064536    -0.10200
C1310       C  0.27841753  0.79186849  0.47785067     0.10700
C1311       C  0.24598309  0.75965591  0.48767353    -0.02000
C1312       C  0.21367680  0.74347330  0.47028214     0.10500
C1313       C  0.18246294  0.71090124  0.48008425    -0.12000
C1314       C  0.18264096  0.69465635  0.50643349    -0.12000
C1315       C  0.21414001  0.71008107  0.52389372     0.10500
C1316       C  0.24622259  0.74292729  0.51450077    -0.02000
C1317       C  0.30986064  0.80738773  0.49537086    -0.12200
C1318       C  0.30961445  0.79189010  0.52222816    -0.12200
C1319       C  0.27831086  0.75946610  0.53214775     0.10700
C1320       C  0.27762771  0.74353342  0.55953269    -0.10200
C1321       C  0.24609205  0.71087293  0.56782003    -0.04100
C1322       C  0.21456919  0.69377428  0.55062266    -0.10200
H1323       H  0.15751646  0.69754741  0.46745497     0.08000
H1324       H  0.15788473  0.66966396  0.51299815     0.08000
H1325       H  0.33479164  0.83205289  0.48855921     0.08200
H1326       H  0.33441638  0.80551225  0.53501117     0.08200
H1327       H  0.24687337  0.80281481  0.41293596     0.04600
H1328       H  0.24555278  0.69919037  0.58884595     0.04600
C1329       C  0.25803577  0.95466062  0.45231031    -0.10200
C1330       C  0.22397564  0.94236768  0.43986947    -0.04100
C1331       C  0.20175195  0.95572737  0.44881177    -0.10200
C1332       C  0.21217668  0.97969281  0.47305356     0.10700
C1333       C  0.24601860  0.99058860  0.48723975    -0.02000
C1334       C  0.26929101  0.97821299  0.47666101     0.10500
C1335       C  0.30282860  0.98952514  0.49068419    -0.12000
C1336       C  0.31287697  0.51186297  0.51541798    -0.12000
C1337       C  0.29059332  0.52503964  0.52595112     0.10500
C1338       C  0.25705286  0.51465551  0.51146803    -0.02000
C1339       C  0.19003307  0.99310403  0.48341531    -0.12200
C1340       C  0.20042032  0.51602891  0.50781077    -0.12200
C1341       C  0.23380816  0.52708902  0.52199957     0.10700
C1342       C  0.24466668  0.55001471  0.54672296    -0.10200
C1343       C  0.27828177  0.56148578  0.55971611    -0.04100
C1344       C  0.30044695  0.54806138  0.55076611    -0.10200
H1345       H  0.32093844  0.98024151  0.48306343     0.08000
H1346       H  0.33860636  0.51944846  0.52590882     0.08000
H1347       H  0.16417066  0.98528601  0.47305407     0.08200
H1348       H  0.18236868  0.52542103  0.51534964     0.08200
H1349       H  0.21659121  0.92541751  0.42039910     0.04600
H1350       H  0.28525971  0.57776832  0.57953531     0.04600
C1351       C  0.00253502  0.53460217  0.99965782     0.02900
C1352       C  0.03602802  0.53456660  0.99760915     0.02900
C1353       C  0.03531803  0.50111288  0.99307667     0.02900
C1354       C  0.00181792  0.96816094  0.98909740     0.02900
C1355       C  0.46883386  0.96809788  0.98839474     0.02900
C1356       C  0.46873608  0.50096527  0.99462576     0.02900
C1357       C  0.33665326  0.63549346  0.34890222     0.02900
C1358       C  0.36997585  0.66827072  0.34188087     0.02900
C1359       C  0.36953692  0.70005643  0.33374742     0.02900
C1360       C  0.33575452  0.69861423  0.32992731     0.02900
C1361       C  0.30202786  0.66561213  0.33573415     0.02900
C1362       C  0.30256491  0.63424928  0.34621307     0.02900
C1363       C  0.16548744  0.86746657  0.65412789     0.02900
C1364       C  0.19827762  0.86653729  0.65095301     0.02900
C1365       C  0.19838354  0.83421891  0.65835702     0.02900
C1366       C  0.16562843  0.80274385  0.66840506     0.02900
C1367       C  0.13242870  0.80295419  0.67006782     0.02900
C1368       C  0.13295241  0.83612202  0.66497663     0.02900
C1369       C  0.06842374  0.81791978  0.65634185    -0.15800
C1370       C  0.09943131  0.83793834  0.67131046    -0.31000
H1371       H  0.06834113  0.80145487  0.63811323     0.13200
H1372       H  0.09988513  0.85474533  0.68931907     0.13800
C1373       C  0.25495454  0.83828289  0.67662927    -0.15800
C1374       C  0.23283366  0.83324629  0.65417341    -0.31000
H1375       H  0.24711058  0.84239868  0.69826562     0.13200
H1376       H  0.24112022  0.83111405  0.63216772     0.13800
C1377       C  0.26241570  0.91318684  0.66126357    -0.15800
C1378       C  0.23375404  0.90070895  0.64308192    -0.31000
H1379       H  0.25799838  0.89958349  0.68207759     0.13200
H1380       H  0.23576384  0.91583064  0.62347179     0.13800
C1381       C  0.06828417  0.75769552  0.68832778    -0.15800
C1382       C  0.09673706  0.76692162  0.67000922    -0.31000
H1383       H  0.07167554  0.77453783  0.70724398     0.13200
H1384       H  0.09324829  0.74795632  0.65263141     0.13800
C1385       C  0.17899393  0.75348814  0.66055021    -0.15800
C1386       C  0.16545285  0.76916109  0.67780683    -0.31000
H1387       H  0.18978720  0.76525875  0.63923053     0.13200
H1388       H  0.15037415  0.75510668  0.69743782     0.13800
C1389       C  0.15680174  0.91951342  0.66405951    -0.15800
C1390       C  0.16526116  0.90104241  0.64501522    -0.31000
H1391       H  0.15091346  0.91004004  0.68646443     0.13200
H1392       H  0.17464854  0.91188863  0.62324481     0.13800
C1393       C  0.02191587  0.60016093  0.99159531    -0.15800
C1394       C  0.00202024  0.56889665  0.00680673    -0.31000
H1395       H  0.03832438  0.60039505  0.97321648     0.13200
H1396       H  0.48256397  0.56709050  0.02288323     0.13800
C1397       C  0.50208346  0.93307995  0.98365878    -0.15800
C1398       C  0.48552806  0.90498416  0.00262947    -0.31000
H1399       H  0.51727058  0.93143928  0.96514061     0.13200
H1400       H  0.47373126  0.90861023  0.02244730     0.13800
C1401       C  0.07195177  0.56974331  0.99792555    -0.15800
C1402       C  0.08174245  0.59483387  0.01921597    -0.31000
H1403       H  0.08949868  0.57622973  0.97880229     0.13200
H1404       H  0.06611214  0.58797291  0.03942688     0.13800
C1405       C  0.41606058  0.90909142  0.00199182    -0.15800
C1406       C  0.43403078  0.93372135  0.98103049    -0.31000
H1407       H  0.42558773  0.91653440  0.02426244     0.13200
H1408       H  0.42581460  0.92736833  0.95843632     0.13800
C1409       C  0.42393780  0.51859606  0.97946933    -0.15800
C1410       C  0.43311783  0.49954985  0.99721435    -0.31000
H1411       H  0.44229806  0.53481368  0.96182481     0.13200
H1412       H  0.41315359  0.48047631  0.01289087     0.13800
C1413       C  0.08011023  0.98647602  0.01424990    -0.15800
C1414       C  0.07050940  0.00127183  0.99264854    -0.31000
H1415       H  0.06228373  0.97466199  0.03315209     0.13200
H1416       H  0.08954017  0.01564676  0.97483895     0.13800
C1417       C  0.33710951  0.60167406  0.35734217    -0.15800
C1418       C  0.35333531  0.58830556  0.34013148    -0.31000
H1419       H  0.32093870  0.58576574  0.37598194     0.13200
H1420       H  0.36615923  0.60252446  0.31993082     0.13800
C1421       C  0.31739917  0.74463770  0.33631982    -0.15800
C1422       C  0.33627608  0.73263105  0.32107982    -0.31000
H1423       H  0.30183062  0.72941449  0.35542503     0.13200
H1424       H  0.35560307  0.75001124  0.30433341     0.13800
C1425       C  0.23968848  0.58572255  0.33355807    -0.15800
C1426       C  0.26738389  0.59930808  0.35262819    -0.31000
H1427       H  0.24401632  0.59909678  0.31257317     0.13200
H1428       H  0.26449981  0.58470215  0.37274077     0.13800
C1429       C  0.40465077  0.73601400  0.33520122    -0.15800
C1430       C  0.43076583  0.74746762  0.31444172    -0.31000
H1431       H  0.41051025  0.75118985  0.35549279     0.13200
H1432       H  0.42446512  0.73380916  0.29344332     0.13800
C1433       C  0.23951344  0.65474846  0.34885463    -0.15800
C1434       C  0.26652918  0.66405001  0.32903713    -0.31000
H1435       H  0.24387144  0.64982437  0.37123886     0.13200
H1436       H  0.26359577  0.67272953  0.30750970     0.13800
C1437       C  0.40618538  0.67072495  0.34493030    -0.15800
C1438       C  0.42725641  0.67517080  0.32138135    -0.31000
H1439       H  0.41557619  0.66952183  0.36659426     0.13200
H1440       H  0.41617865  0.67334300  0.29978568     0.13800
O1441       O  0.64632286  0.18493578  0.31212673    -0.87700
C1442       C  0.54735549  0.09047331  0.30170403     0.88300
Mg1443     Mg  0.67024997  0.20833952  0.35385291     1.58100
O1444       O  0.55210900  0.17450089  0.28479158    -0.87500
O1445       O  0.63472751  0.19754047  0.26881420    -0.74800
C1446       C  0.53982346  0.21542410  0.42614022     0.93300
O1447       O  0.61002831  0.11635602  0.35505936    -0.74600
O1448       O  0.56905417  0.21542600  0.43237672    -0.82100
Mg1449     Mg  0.62887157  0.12849267  0.30691199     1.58000
C1450       C  0.96507084  0.18156638  0.32344513     0.93300
O1451       O  0.64825392  0.13623857  0.25937404    -0.80400
H1452       H  0.57317845  0.22280771  0.26435757    -0.05700
C1453       C  0.51702665  0.13380060  0.36900923     0.88200
O1454       O  0.65159782  0.25014706  0.35004348    -0.74900
O1455       O  0.57523206  0.11889457  0.29371729    -0.87700
O1456       O  0.97783885  0.17191681  0.30246537    -0.80500
C1457       C  0.98543938  0.10324993  0.23962231     0.93400
C1458       C  0.62909419  0.11964937  0.23713983     0.93200
Mg1459     Mg  0.54192394  0.21031358  0.35576022     1.58000
O1460       O  0.52179363  0.19958544  0.40331066    -0.80400
O1461       O  0.56083093  0.22436526  0.30707671    -0.74600
O1462       O  0.51744886  0.10842411  0.23603734    -0.80500
O1463       O  0.68666577  0.13966240  0.31970757    -0.82200
O1464       O  0.65184669  0.23122300  0.42501651    -0.80500
C1465       C  0.56245931  0.20763013  0.28441980     0.87700
O1466       O  0.59591069  0.22214029  0.36794107    -0.87600
O1467       O  0.52677087  0.15507979  0.34815194    -0.87700
O1468       O  0.53734587  0.14125440  0.39123597    -0.74800
Mg1469     Mg  0.57616676  0.15061326  0.25647061     1.58000
O1470       O  0.97642693  0.11369461  0.26247650    -0.82200
H1471       H  0.68261201  0.22995739  0.29023380    -0.05900
O1472       O  0.62023178  0.16754795  0.37564019    -0.87400
H1473       H  0.59944629  0.12042267  0.39767708    -0.05700
H1474       H  0.62127795  0.27442545  0.35484475    -0.05900
C1475       C  0.60976017  0.13448569  0.37713417     0.87600
C1476       C  0.65581967  0.20521902  0.29059497     0.88200
C1477       C  0.62280357  0.25001515  0.35792448     0.88300
H1478       H  0.49067492  0.10855086  0.36845656    -0.05900
O1479       O  0.51808100  0.09026637  0.30804151    -0.74900
Mg1480     Mg  0.59502028  0.18919635  0.40435527     1.58000
H1481       H  0.54808339  0.06550821  0.30382002    -0.05900
C1482       C  0.70603845  0.15599321  0.34198944     0.93300
O1483       O  0.69571237  0.23298555  0.39685900    -0.82100
C1484       C  0.68522973  0.24012074  0.42064585     0.93300
O1485       O  0.60076224  0.12126279  0.23044216    -0.82100
Mg1486     Mg  0.50183758  0.13425698  0.30606238     1.58200
O1487       O  0.69788492  0.17441843  0.35898225    -0.80500
O1488       O  0.98388450  0.19594503  0.34611647    -0.82100
C1489       C  0.63841103  0.09516156  0.22100388    -0.10200
C1490       C  0.63123018  0.06287445  0.23512485    -0.04100
C1491       C  0.64067003  0.03865986  0.22249588    -0.10200
C1492       C  0.65908680  0.04728134  0.19552241     0.10700
C1493       C  0.66746862  0.08028776  0.18131833    -0.02000
C1494       C  0.65637870  0.10393329  0.19367680     0.10500
C1495       C  0.66421573  0.13592439  0.17864638    -0.12000
C1496       C  0.68285339  0.14471477  0.15204530    -0.12000
C1497       C  0.69500424  0.12225075  0.14006975     0.10500
C1498       C  0.68738562  0.08985929  0.15480386    -0.02000
C1499       C  0.67000633  0.02415960  0.18271656    -0.12200
C1500       C  0.68942628  0.03356732  0.15652107    -0.12200
C1501       C  0.69870536  0.06646171  0.14246636     0.10700
C1502       C  0.71876643  0.07672064  0.11613219    -0.10200
C1503       C  0.72712590  0.10912421  0.10252169    -0.04100
C1504       C  0.71422913  0.13085393  0.11342741    -0.10200
H1505       H  0.65598535  0.15437995  0.18734815     0.08000
H1506       H  0.68830946  0.16960216  0.14115104     0.08000
H1507       H  0.66403817  0.49870637  0.19310344     0.08200
H1508       H  0.69760280  0.01518762  0.14753092     0.08200
H1509       H  0.61784680  0.05634980  0.25632024     0.04600
H1510       H  0.74096463  0.11579261  0.08144458     0.04600
C1511       C  0.95439446  0.07869516  0.22015760    -0.10200
C1512       C  0.92733680  0.04660399  0.23396828    -0.04100
C1513       C  0.89291576  0.02380306  0.22176430    -0.10200
C1514       C  0.88578699  0.03089788  0.19359462     0.10700
C1515       C  0.91196151  0.06377977  0.17911503    -0.02000
C1516       C  0.94617158  0.08845228  0.19257708     0.10500
C1517       C  0.96999859  0.12196050  0.17833924    -0.12000
C1518       C  0.96057888  0.13090517  0.15141054    -0.12000
C1519       C  0.92726646  0.10640111  0.13745749     0.10500
C1520       C  0.90310783  0.07218563  0.15150209    -0.02000
C1521       C  0.85285067  0.00602261  0.17981846    -0.12200
C1522       C  0.84572292  0.01272552  0.15191644    -0.12200
C1523       C  0.87027431  0.04554512  0.13759162     0.10700
C1524       C  0.86294942  0.05206229  0.10936621    -0.10200
C1525       C  0.88521975  0.08611246  0.09641842    -0.04100
C1526       C  0.91713753  0.11380075  0.10962362    -0.10200
H1527       H  0.49610832  0.14018150  0.18823049     0.08000
H1528       H  0.97970164  0.15698099  0.14138192     0.08000
H1529       H  0.83263699  0.48059999  0.19023455     0.08200
H1530       H  0.82031806  0.99226679  0.14186283     0.08200
H1531       H  0.93228107  0.04043190  0.25580529     0.04600
H1532       H  0.87841189  0.09044229  0.07461589     0.04600
O1533       O  0.52405922  0.36850996  0.34628984    -0.87700
C1534       C  0.62019585  0.37654203  0.36519924     0.88300
Mg1535     Mg  0.50450766  0.36183802  0.30266997     1.58100
O1536       O  0.61495840  0.45687621  0.37714474    -0.87500
O1537       O  0.53064496  0.39649285  0.38778591    -0.74800
C1538       C  0.63171940  0.50530783  0.23896520     0.93300
O1539       O  0.56412313  0.33423133  0.31047426    -0.74600
O1540       O  0.60502897  0.47439620  0.23135247    -0.82100
Mg1541     Mg  0.53988064  0.33052199  0.35701629     1.58000
C1542       C  0.70398305  0.05232254  0.33757108     0.93300
O1543       O  0.51557531  0.32330383  0.40232046    -0.80400
H1544       H  0.59328728  0.48355449  0.39690282    -0.05700
C1545       C  0.65842020  0.45194572  0.29668117     0.88200
O1546       O  0.51683522  0.42129634  0.30362736    -0.74900
O1547       O  0.59175610  0.37649910  0.37092539    -0.87700
O1548       O  0.69776371  0.03035994  0.35854556    -0.80500
C1549       C  0.67503465  0.45147985  0.42674311     0.93400
C1550       C  0.53299631  0.32663259  0.42550071     0.93200
Mg1551     Mg  0.62622546  0.49844577  0.30728720     1.58000
O1552       O  0.64966050  0.00841655  0.26161167    -0.80400
O1553       O  0.60493709  0.49577385  0.35401450    -0.74600
O1554       O  0.64179237  0.42502933  0.42826059    -0.80500
O1555       O  0.98276248  0.28412301  0.34428963    -0.82200
O1556       O  0.52789093  0.40850330  0.23892162    -0.80500
C1557       C  0.60426081  0.47900296  0.37706207     0.87700
O1558       O  0.57551477  0.45199165  0.29451988    -0.87600
O1559       O  0.64564309  0.46196021  0.31645567    -0.87700
O1560       O  0.64014584  0.43709624  0.27375117    -0.74800
Mg1561     Mg  0.58720307  0.40924764  0.40514455     1.58000
O1562       O  0.68799708  0.47223088  0.40463888    -0.82200
H1563       H  0.48570740  0.37821465  0.36207986    -0.05900
O1564       O  0.55786475  0.37562782  0.28717522    -0.87400
H1565       H  0.58090094  0.34948355  0.26854449    -0.05700
H1566       H  0.54664062  0.47689427  0.30022104    -0.05900
C1567       C  0.56823256  0.35319229  0.28774425     0.87600
C1568       C  0.51220786  0.38080375  0.36505448     0.88200
C1569       C  0.54656627  0.45141357  0.29932078     0.88300
H1570       H  0.68559363  0.45591342  0.29890928    -0.05900
O1571       O  0.64983019  0.40619906  0.35961472    -0.74900
Mg1572     Mg  0.58235360  0.42286898  0.25894065     1.58000
H1573       H  0.61967940  0.35083266  0.36436865    -0.05900
C1574       C  0.96843402  0.27882811  0.31929074     0.93300
O1575       O  0.98623920  0.35410341  0.25646772    -0.82100
C1576       C  0.99711534  0.37944000  0.23788746     0.93300
O1577       O  0.56045405  0.35734859  0.43286374    -0.82100
Mg1578     Mg  0.66708618  0.46711062  0.35943690     1.58200
O1579       O  0.98603322  0.30054639  0.29867143    -0.80500
O1580       O  0.68072251  0.04533133  0.31787450    -0.82100
O1581       O  0.86822902  0.37890161  0.33008972    -0.87700
C1582       C  0.80001630  0.39539611  0.27742349     0.88300
Mg1583     Mg  0.85009551  0.35569934  0.37316858     1.58100
O1584       O  0.87263581  0.47343190  0.31009856    -0.87500
O1585       O  0.91192631  0.42687441  0.30741155    -0.74800
C1586       C  0.78308632  0.44884065  0.43423949     0.93300
O1587       O  0.77921030  0.32954089  0.32643379    -0.74600
O1588       O  0.78083385  0.41798227  0.43589901    -0.82100
Mg1589     Mg  0.82892084  0.34847662  0.29578328     1.58000
C1590       C  0.85056069  0.05262563  0.34403226     0.93300
O1591       O  0.87256646  0.36087728  0.26045465    -0.80400
H1592       H  0.92636309  0.51001796  0.31392708    -0.05700
C1593       C  0.77339682  0.43226724  0.35001301     0.88200
O1594       O  0.88144260  0.41319103  0.39444571    -0.74900
O1595       O  0.82885608  0.39765090  0.28549468    -0.87700
O1596       O  0.85312602  0.03716144  0.32117309    -0.80500
C1597       C  0.86420012  0.49616470  0.24120878     0.93400
C1598       C  0.88933735  0.38396767  0.24004210     0.93200
Mg1599     Mg  0.84554543  0.48535798  0.38034734     1.58000
O1600       O  0.80135202  0.47214662  0.41441142    -0.80400
O1601       O  0.89577597  0.50467895  0.34992511    -0.74600
O1602       O  0.85732352  0.46345666  0.24129376    -0.80500
O1603       O  0.82986502  0.29674084  0.30755909    -0.82200
O1604       O  0.81692133  0.36923992  0.43530447    -0.80500
C1605       C  0.89939435  0.49660753  0.32396456     0.87700
O1606       O  0.84551374  0.43593359  0.39076356    -0.87600
O1607       O  0.80636718  0.45500155  0.34611785    -0.87700
O1608       O  0.76281228  0.40583668  0.36786489    -0.74800
Mg1609     Mg  0.88186483  0.44440358  0.27561060     1.58000
O1610       O  0.85139792  0.00730117  0.26106498    -0.82200
H1611       H  0.92146274  0.39803100  0.33768634    -0.05900
O1612       O  0.80228031  0.35970516  0.36677590    -0.87400
H1613       H  0.74851859  0.32352712  0.36242896    -0.05700
H1614       H  0.89450105  0.46324137  0.41017353    -0.05900
C1615       C  0.77558365  0.33694685  0.35258457     0.87600
C1616       C  0.90124779  0.40078033  0.32558004     0.88200
C1617       C  0.87447423  0.43859536  0.39903659     0.88300
H1618       H  0.75312432  0.43448857  0.33752103    -0.05900
O1619       O  0.79362952  0.42118303  0.28208273    -0.74900
Mg1620     Mg  0.79232050  0.38855794  0.40052494     1.58000
H1621       H  0.77967076  0.37087422  0.26633504    -0.05900
C1622       C  0.82336144  0.28161466  0.33251495     0.93300
O1623       O  0.82628158  0.32701617  0.41682483    -0.82100
C1624       C  0.81095865  0.33674977  0.43570729     0.93300
O1625       O  0.89158038  0.41483930  0.23922078    -0.82100
Mg1626     Mg  0.82557195  0.47861758  0.30358994     1.58200
O1627       O  0.82268592  0.29772427  0.35559697    -0.80500
O1628       O  0.84405559  0.03723598  0.36888254    -0.82100
C1629       C  0.96952021  0.37764128  0.21867464    -0.10200
C1630       C  0.94702155  0.38850143  0.23153363    -0.04100
C1631       C  0.91285216  0.37780043  0.22028633    -0.10200
C1632       C  0.90198823  0.35866625  0.19350348     0.10700
C1633       C  0.92563926  0.34856891  0.17954177    -0.02000
C1634       C  0.95939873  0.35761210  0.19254607     0.10500
C1635       C  0.98180355  0.34602659  0.17947788    -0.12000
C1636       C  0.97141555  0.32609649  0.15361797    -0.12000
C1637       C  0.93823634  0.31701729  0.14005578     0.10500
C1638       C  0.91503052  0.32834917  0.15320659    -0.02000
C1639       C  0.86857254  0.34934482  0.18039626    -0.12200
C1640       C  0.85870551  0.33072811  0.15383777    -0.12200
C1641       C  0.88146662  0.31989992  0.14001285     0.10700
C1642       C  0.87188225  0.30130871  0.11312234    -0.10200
C1643       C  0.89513947  0.29055202  0.10022258    -0.04100
C1644       C  0.92793183  0.29754740  0.11343184    -0.10200
H1645       H  0.50824134  0.35405985  0.19051845     0.08000
H1646       H  0.98968444  0.31796541  0.14426203     0.08000
H1647       H  0.85019281  0.35693275  0.19040151     0.08200
H1648       H  0.83292432  0.32466736  0.14428977     0.08200
H1649       H  0.95475143  0.40250848  0.25244997     0.04600
H1650       H  0.88772556  0.27676508  0.07929273     0.04600
O1651       O  0.71427821  0.03279976  0.01091809    -0.87700
C1652       C  0.73385360  0.46247139  0.05790626     0.88300
Mg1653     Mg  0.68940027  0.01686437  0.96917744     1.58100
O1654       O  0.81144962  0.03583786  0.02455143    -0.87500
O1655       O  0.76502933  0.07537971  0.03125305    -0.74800
C1656       C  0.77862174  0.45025404  0.90028918     0.93300
O1657       O  0.66399590  0.44206805  0.01348093    -0.74600
O1658       O  0.74771279  0.44813322  0.89989112    -0.82100
Mg1659     Mg  0.68550296  0.49083126  0.04466867     1.58000
C1660       C  0.88806226  0.01566972  0.98221602     0.93300
O1661       O  0.70043607  0.03393992  0.07888544    -0.80400
H1662       H  0.84753022  0.08976505  0.02180933    -0.05700
C1663       C  0.76735432  0.43845450  0.98292480     0.88200
O1664       O  0.74563274  0.04791990  0.94580192    -0.74900
O1665       O  0.73576319  0.49141121  0.05070432    -0.87700
O1666       O  0.87307479  0.01136864  0.00719437    -0.80500
C1667       C  0.83512659  0.02327700  0.09074129     0.93400
C1668       C  0.72462811  0.05210508  0.09791694     0.93200
Mg1669     Mg  0.81821849  0.01295669  0.95278941     1.58000
O1670       O  0.80320069  0.46936500  0.91879919    -0.80400
O1671       O  0.83928807  0.06181652  0.98395719    -0.74600
O1672       O  0.80227057  0.01611084  0.09177404    -0.80500
O1673       O  0.63199683  0.49034423  0.03782236    -0.82200
O1674       O  0.70202868  0.48710135  0.90652759    -0.80500
C1675       C  0.83354390  0.06351645  0.01085530     0.87700
O1676       O  0.76814340  0.01177799  0.94702806    -0.87600
O1677       O  0.79054891  0.47126486  0.98666234    -0.87700
O1678       O  0.73916438  0.42835914  0.96724563    -0.74800
Mg1679     Mg  0.78329718  0.04384164  0.06053354     1.58000
O1680       O  0.84599278  0.01097593  0.07026925    -0.82200
H1681       H  0.73412911  0.08630413  0.00426567    -0.05900
O1682       O  0.69299092  0.46819212  0.97335440    -0.87400
H1683       H  0.65605263  0.41443606  0.97551695    -0.05700
H1684       H  0.79468809  0.06088826  0.92762966    -0.05900
C1685       C  0.67022122  0.44052627  0.98668637     0.87600
C1686       C  0.73723573  0.06554804  0.01516077     0.88200
C1687       C  0.77058767  0.04084888  0.93952178     0.88300
H1688       H  0.77056683  0.41787039  0.99400534    -0.05900
O1689       O  0.75940818  0.45617706  0.05168913    -0.74900
Mg1690     Mg  0.72062539  0.45937608  0.93767232     1.58000
H1691       H  0.70986051  0.44198314  0.06964164    -0.05900
C1692       C  0.61658736  0.48970354  0.01400522     0.93300
O1693       O  0.65893690  0.49357429  0.92760422    -0.82100
C1694       C  0.66928324  0.48014816  0.90768487     0.93300
O1695       O  0.75543877  0.05399291  0.09843568    -0.82100
Mg1696     Mg  0.81586311  0.48761379  0.02819178     1.58200
O1697       O  0.63223597  0.49332389  0.98949645    -0.80500
O1698       O  0.87186089  0.01489178  0.95889149    -0.82100
O1699       O  0.70035605  0.19027308  0.98615838    -0.87700
C1700       C  0.70882998  0.28769750  0.97190891     0.88300
Mg1701     Mg  0.69640281  0.16897835  0.02912209     1.58100
O1702       O  0.78889529  0.28212402  0.95888551    -0.87500
O1703       O  0.72767014  0.19822571  0.94420219    -0.74800
C1704       C  0.83877770  0.29372796  0.09686958     0.93300
O1705       O  0.66761194  0.22830030  0.02577785    -0.74600
O1706       O  0.80763244  0.26651355  0.10360786    -0.82100
Mg1707     Mg  0.66230517  0.20722935  0.97812754     1.58000
C1708       C  0.88453009  0.37213993  0.99875759     0.93300
O1709       O  0.65103897  0.18674109  0.93075507    -0.80400
H1710       H  0.81739673  0.26358594  0.93742823    -0.05700
C1711       C  0.78453936  0.32271987  0.04052710     0.88200
O1712       O  0.75657972  0.18367419  0.02587126    -0.74900
O1713       O  0.70825075  0.25941702  0.96472102    -0.87700
O1714       O  0.86341405  0.36378157  0.97690044    -0.80500
C1715       C  0.78378029  0.34366792  0.91052432     0.93400
C1716       C  0.65804112  0.20528766  0.90738585     0.93200
Mg1717     Mg  0.83281745  0.29316423  0.02798873     1.58000
O1718       O  0.84233974  0.31321147  0.07488241    -0.80400
O1719       O  0.83065071  0.27482144  0.98016883    -0.74600
O1720       O  0.75761417  0.31058147  0.90882964    -0.80500
O1721       O  0.61657102  0.14939056  0.99051113    -0.82200
O1722       O  0.74231210  0.19030699  0.09440290    -0.80500
C1723       C  0.81242647  0.27322868  0.95778121     0.87700
O1724       O  0.78704106  0.24094194  0.03948741    -0.87600
O1725       O  0.79510073  0.31136641  0.02012825    -0.87700
O1726       O  0.76978414  0.30312981  0.06301058    -0.74800
Mg1727     Mg  0.74147013  0.25593697  0.93005789     1.58000
O1728       O  0.80454199  0.35637339  0.93253226    -0.82200
H1729       H  0.70764957  0.15151856  0.96806699    -0.05900
O1730       O  0.70947554  0.22109156  0.04722207    -0.87400
H1731       H  0.68295982  0.24239427  0.06792506    -0.05700
H1732       H  0.81217886  0.21324862  0.02952603    -0.05900
C1733       C  0.68671887  0.23106634  0.04798318     0.87600
C1734       C  0.71146885  0.17865018  0.96636647     0.88200
C1735       C  0.78655869  0.21280342  0.03183542     0.88300
H1736       H  0.78798474  0.34972893  0.03926791    -0.05900
O1737       O  0.73873802  0.31666353  0.97821288    -0.74900
Mg1738     Mg  0.75643671  0.24491641  0.07569133     1.58000
H1739       H  0.68329735  0.28754468  0.97350862    -0.05900
C1740       C  0.61247966  0.13268407  0.01440259     0.93300
O1741       O  0.69239958  0.14577483  0.07294106    -0.82100
C1742       C  0.71578277  0.15755257  0.09314472     0.93300
O1743       O  0.69022067  0.23175625  0.90158013    -0.82100
Mg1744     Mg  0.79980699  0.33398763  0.97738344     1.58200
O1745       O  0.63538751  0.14763952  0.03472832    -0.80500
O1746       O  0.87815757  0.34951240  0.01893803    -0.82100
O1747       O  0.51800359  0.31023350  0.01948003    -0.87700
C1748       C  0.92263466  0.20820466  0.03127314     0.88300
Mg1749     Mg  0.53741278  0.33831523  0.97741696     1.58100
O1750       O  0.51026343  0.21447629  0.04437625    -0.87500
O1751       O  0.53260763  0.29666733  0.06135280    -0.74800
C1752       C  0.54761538  0.21436332  0.90154240     0.93300
O1753       O  0.94354568  0.27226122  0.97890144    -0.74600
O1754       O  0.54677755  0.24312384  0.89513053    -0.85700
Mg1755     Mg  0.95847734  0.28913320  0.02711604     1.58000
C1756       C  0.51993528  0.13331592  0.99582857     0.93300
O1757       O  0.96920712  0.30773748  0.07460063    -0.80400
H1758       H  0.56014242  0.23808556  0.06230908    -0.05700
C1759       C  0.96497660  0.18453828  0.95942185     0.88200
O1760       O  0.58208160  0.32333318  0.97522489    -0.74900
O1761       O  0.95148070  0.23613775  0.03797870    -0.87700
O1762       O  0.00128540  0.13598094  0.01706669    -0.80500
C1763       C  0.94012268  0.14539874  0.08970596     0.93400
C1764       C  0.95218276  0.28803118  0.09652788     0.93200
Mg1765     Mg  0.54422484  0.21437026  0.97033600     1.58000
O1766       O  0.52999283  0.19531375  0.92347347    -0.80400
O1767       O  0.56045292  0.23090662  0.01856182    -0.74600
O1768       O  0.94576150  0.17771367  0.09455033    -0.80500
O1769       O  0.96760187  0.34562165  0.01853398    -0.82200
O1770       O  0.55723604  0.32498933  0.90336963    -0.80500
C1771       C  0.54401041  0.22790930  0.04271112     0.87700
O1772       O  0.55153020  0.26714773  0.96006814    -0.87600
O1773       O  0.98679240  0.19327289  0.97982473    -0.87700
O1774       O  0.97138399  0.20607909  0.93797630    -0.74800
Mg1775     Mg  0.98477514  0.23730574  0.07388802     1.58000
O1776       O  0.94901700  0.13718446  0.06550203    -0.82200
H1777       H  0.56446121  0.34516378  0.04021267    -0.05900
O1778       O  0.99398582  0.28814179  0.95377060    -0.87400
H1779       H  0.94443534  0.26448940  0.93531187    -0.05700
H1780       H  0.60578164  0.29316562  0.96654584    -0.05900
C1781       C  0.96027846  0.27487497  0.95502471     0.87600
C1782       C  0.53949358  0.31856468  0.04007520     0.88200
C1783       C  0.58092075  0.29436968  0.96691122     0.88300
H1784       H  0.94006499  0.15789228  0.95964082    -0.05900
O1785       O  0.92254345  0.17941324  0.02399392    -0.74900
Mg1786     Mg  0.51783618  0.26607218  0.92448071     1.58000
H1787       H  0.89724897  0.20842091  0.03122624    -0.05900
C1788       C  0.98395231  0.36975498  0.99894674     0.93300
O1789       O  0.55694783  0.36603885  0.93357664    -0.82100
C1790       C  0.56451963  0.35768029  0.90887918     0.93300
O1791       O  0.95402242  0.25960503  0.10242802    -0.82100
Mg1792     Mg  0.96775927  0.16492824  0.02149244     1.58200
O1793       O  0.50298563  0.36581044  0.97946483    -0.80500
O1794       O  0.53677210  0.15901009  0.97763223    -0.82100
O1795       O  0.69686959  0.05043594  0.65305087    -0.87700
C1796       C  0.62389494  0.05965323  0.60219825     0.88300
Mg1797     Mg  0.67993867  0.02703632  0.69577545     1.58100
O1798       O  0.69588901  0.14074501  0.63236534    -0.87500
O1799       O  0.73891110  0.09818716  0.62914544    -0.74800
C1800       C  0.61407070  0.11743463  0.76206876     0.93300
O1801       O  0.60817970  0.99721829  0.65175179    -0.74600
O1802       O  0.61342768  0.08733143  0.76346002    -0.82100
Mg1803     Mg  0.65765333  0.01713892  0.62010399     1.58000
C1804       C  0.67363907  0.21720974  0.66661481     0.93300
O1805       O  0.70169461  0.03200755  0.58543680    -0.80400
H1806       H  0.74965381  0.17746575  0.63578787    -0.05700
C1807       C  0.59877509  0.09893028  0.67769233     0.88200
O1808       O  0.71187079  0.08453017  0.71697556    -0.74900
O1809       O  0.65421708  0.06425452  0.60876189    -0.87700
O1810       O  0.67253332  0.19958153  0.64403485    -0.80500
C1811       C  0.68212739  0.16239006  0.56491724     0.93400
C1812       C  0.71796748  0.05459322  0.56468751     0.93200
Mg1813     Mg  0.67194672  0.15311397  0.70454137     1.58000
O1814       O  0.62939077  0.14003882  0.74106380    -0.80400
O1815       O  0.72001957  0.17180243  0.67231097    -0.74600
O1816       O  0.67850145  0.13078604  0.56449566    -0.80500
O1817       O  0.66371654  0.46782619  0.63268085    -0.82200
O1818       O  0.64925315  0.03992306  0.75879815    -0.80500
C1819       C  0.72286664  0.16398915  0.64609338     0.87700
O1820       O  0.67437778  0.10559905  0.71545111    -0.87600
O1821       O  0.63149962  0.12007170  0.67171336    -0.87700
O1822       O  0.58914842  0.07371328  0.69646416    -0.74800
Mg1823     Mg  0.70604126  0.11298525  0.59783479     1.58000
O1824       O  0.66492529  0.16964276  0.58386453    -0.82200
H1825       H  0.75060130  0.07122613  0.65969671    -0.05900
O1826       O  0.63154090  0.03036834  0.69082910    -0.87400
H1827       H  0.57806105  0.99240026  0.68796313    -0.05700
H1828       H  0.72431165  0.13417390  0.73324831    -0.05900
C1829       C  0.60479518  0.00618302  0.67751957     0.87600
C1830       C  0.72956460  0.07286689  0.64784737     0.88200
C1831       C  0.70418067  0.10924573  0.72248368     0.88300
H1832       H  0.57796413  0.10160893  0.66646156    -0.05900
O1833       O  0.61532766  0.08367757  0.60791340    -0.74900
Mg1834     Mg  0.62227869  0.05804873  0.72635023     1.58000
H1835       H  0.60395795  0.03432731  0.59179785    -0.05900
C1836       C  0.65682461  0.45360743  0.65799229     0.93300
O1837       O  0.65715597  0.99784749  0.73819786    -0.82100
C1838       C  0.64283696  0.00739621  0.75789604     0.93300
O1839       O  0.71737754  0.08397094  0.56185054    -0.82100
Mg1840     Mg  0.64590190  0.14169718  0.62807352     1.58200
O1841       O  0.65103198  0.46887665  0.67933169    -0.80500
O1842       O  0.66892002  0.20373639  0.69211523    -0.82100
C1843       C  0.57188287  0.20421574  0.88581658    -0.10200
C1844       C  0.60352245  0.21040960  0.90038846    -0.04100
C1845       C  0.62680657  0.19891124  0.88894825    -0.10200
C1846       C  0.61864066  0.18094747  0.86172323     0.10700
C1847       C  0.58573245  0.17280940  0.84736614    -0.02000
C1848       C  0.56230583  0.18449548  0.85936332     0.10500
C1849       C  0.52957376  0.17537313  0.84495946    -0.12000
C1850       C  0.51968413  0.15477708  0.81941030    -0.12000
C1851       C  0.54230588  0.14282240  0.80739320     0.10500
C1852       C  0.57585088  0.15231161  0.82116229    -0.02000
C1853       C  0.64195024  0.17032069  0.84871007    -0.12200
C1854       C  0.63311719  0.15193488  0.82199729    -0.12200
C1855       C  0.59998559  0.14226295  0.80813696     0.10700
C1856       C  0.58977859  0.12266315  0.78156282    -0.10200
C1857       C  0.55556671  0.11093528  0.76988218    -0.04100
C1858       C  0.53259373  0.12182529  0.78167835    -0.10200
H1859       H  0.51116668  0.18379691  0.85351717     0.08000
H1860       H  0.99480029  0.14890016  0.80821813     0.08000
H1861       H  0.66732231  0.17637657  0.85903434     0.08200
H1862       H  0.65188324  0.14445768  0.81260001     0.08200
H1863       H  0.60990219  0.22405690  0.92139034     0.04600
H1864       H  0.54832190  0.09631193  0.74921759     0.04600
C1865       C  0.64127117  0.45124033  0.88938882    -0.10200
C1866       C  0.61913142  0.41723626  0.90236149    -0.04100
C1867       C  0.58754628  0.38926134  0.88895536    -0.10200
C1868       C  0.57798650  0.39616762  0.86067862     0.10700
C1869       C  0.60203975  0.43049258  0.84675295    -0.02000
C1870       C  0.63414506  0.45763955  0.86114623     0.10500
C1871       C  0.65830635  0.49093194  0.84728640    -0.12000
C1872       C  0.65172413  0.49754162  0.81928832    -0.12000
C1873       C  0.61988153  0.47182712  0.80471435     0.10500
C1874       C  0.59390921  0.43845784  0.81869730    -0.02000
C1875       C  0.54535581  0.37112383  0.84613793    -0.12200
C1876       C  0.53673119  0.37949053  0.81859922    -0.12200
C1877       C  0.56065868  0.41300396  0.80437420     0.10700
C1878       C  0.55365399  0.42201827  0.77597862    -0.10200
C1879       C  0.58086688  0.45436259  0.76255429    -0.04100
C1880       C  0.61393108  0.47854456  0.77613455    -0.10200
H1881       H  0.68305076  0.51193909  0.85776763     0.08000
H1882       H  0.67148355  0.02331950  0.80925827     0.08000
H1883       H  0.52624251  0.34498685  0.85608226     0.08200
H1884       H  0.01169569  0.35972826  0.80717562     0.08200
H1885       H  0.62584907  0.41312407  0.92425921     0.04600
H1886       H  0.57682664  0.46031201  0.74038410     0.04600
O1887       O  0.85558453  0.03602627  0.68312643    -0.87700
C1888       C  0.95688314  0.04970091  0.69750705     0.88300
Mg1889     Mg  0.83419301  0.03352177  0.64015938     1.58100
O1890       O  0.94301749  0.12335398  0.71249172    -0.87500
O1891       O  0.86124295  0.05921110  0.72646602    -0.74800
C1892       C  0.96463470  0.17821488  0.57448758     0.93300
O1893       O  0.89716775  0.00580821  0.64266832    -0.74600
O1894       O  0.93879554  0.14626798  0.56771643    -0.82100
Mg1895     Mg  0.87657894  0.00009982  0.68990317     1.58000
C1896       C  0.53181278  0.22433645  0.68358910     0.93300
O1897       O  0.85517899  0.48471162  0.73662755    -0.80400
H1898       H  0.91918353  0.14771516  0.73276858    -0.05700
C1899       C  0.99007864  0.12416081  0.63350379     0.88200
O1900       O  0.85101082  0.09423886  0.64226214    -0.74900
O1901       O  0.92719610  0.04706269  0.70353927    -0.87700
O1902       O  0.51625916  0.20039624  0.70334223    -0.80500
C1903       C  0.50511635  0.11893504  0.76160587     0.93400
C1904       C  0.87295805  0.99045332  0.75983585     0.93200
Mg1905     Mg  0.95995406  0.17248343  0.64419094     1.58000
O1906       O  0.98287915  0.18417642  0.59777079    -0.80400
O1907       O  0.93590995  0.16535256  0.69122977    -0.74600
O1908       O  0.97486896  0.09084183  0.75985202    -0.80500
O1909       O  0.82176526  0.45330340  0.67812359    -0.82200
O1910       O  0.85930968  0.07784513  0.57160378    -0.80500
C1911       C  0.93205939  0.14530336  0.71315468     0.87700
O1912       O  0.90872723  0.12582167  0.62967141    -0.87600
O1913       O  0.97818545  0.13566194  0.65286464    -0.87700
O1914       O  0.97110388  0.10815707  0.61107860    -0.74800
Mg1915     Mg  0.91979584  0.07488314  0.73997903     1.58000
O1916       O  0.51593675  0.14402086  0.74278278    -0.82200
H1917       H  0.81499329  0.03969676  0.70222022    -0.05900
O1918       O  0.88679158  0.04568955  0.62183035    -0.87400
H1919       H  0.90829540  0.02015926  0.60008071    -0.05700
H1920       H  0.87966754  0.14974655  0.63860284    -0.05900
C1921       C  0.89754171  0.02366994  0.62046235     0.87600
C1922       C  0.84260235  0.04460786  0.70367823     0.88200
C1923       C  0.87995462  0.12451932  0.63659357     0.88300
H1924       H  0.01700064  0.12751704  0.63577758    -0.05900
O1925       O  0.98568009  0.08084749  0.69359183    -0.74900
Mg1926     Mg  0.91382681  0.09418986  0.59464310     1.58000
H1927       H  0.95830134  0.02510871  0.69521885    -0.05900
C1928       C  0.79828151  0.44720084  0.65869236     0.93300
O1929       O  0.81289647  0.03080168  0.59508311    -0.82100
C1930       C  0.82598718  0.05170753  0.57304125     0.93300
O1931       O  0.89848276  0.02248580  0.76671053    -0.82100
Mg1932     Mg  0.99709901  0.14009446  0.69672306     1.58200
O1933       O  0.80434766  0.47019373  0.63858388    -0.80500
O1934       O  0.51687986  0.21967945  0.65881455    -0.82100
O1935       O  0.97150434  0.34715043  0.64831919    -0.87700
C1936       C  0.87235234  0.25170415  0.63877753     0.88300
Mg1937     Mg  0.00147332  0.36845805  0.68861757     1.58100
O1938       O  0.87379298  0.33469431  0.62638822    -0.87500
O1939       O  0.95633617  0.36102045  0.60696011    -0.74800
C1940       C  0.87797465  0.37716038  0.76817130     0.93300
O1941       O  0.93806470  0.27563666  0.68826811    -0.74600
O1942       O  0.90777409  0.37763508  0.77323249    -0.82100
Mg1943     Mg  0.95234650  0.29067802  0.63960787     1.58000
C1944       C  0.79107649  0.34114697  0.67392883     0.93300
O1945       O  0.97003952  0.30375891  0.59223028    -0.80400
H1946       H  0.89286537  0.38327587  0.60690355    -0.05700
C1947       C  0.84849933  0.29263841  0.71161779     0.88200
O1948       O  0.98368406  0.41114760  0.69150812    -0.74900
O1949       O  0.89874327  0.28140349  0.63115080    -0.87700
O1950       O  0.79680098  0.32579554  0.65236288    -0.80500
C1951       C  0.80625137  0.26306211  0.58248699     0.93400
C1952       C  0.95066182  0.28580672  0.57069418     0.93200
Mg1953     Mg  0.87288999  0.36951776  0.69960758     1.58000
O1954       O  0.85727178  0.35749425  0.74769036    -0.80400
O1955       O  0.88666422  0.38460775  0.65073950    -0.74600
O1956       O  0.83938657  0.27159966  0.57730371    -0.80500
O1957       O  0.50805590  0.29967225  0.64592436    -0.82200
O1958       O  0.99027782  0.39046997  0.76174111    -0.80500
C1959       C  0.88453107  0.36789077  0.62702091     0.87700
O1960       O  0.92778494  0.37988299  0.70783668    -0.87600
O1961       O  0.85508516  0.31360411  0.69082667    -0.87700
O1962       O  0.87150644  0.30075797  0.73216351    -0.74800
Mg1963     Mg  0.89759625  0.31338477  0.59543683     1.58000
O1964       O  0.79652411  0.27008171  0.60682364    -0.82200
H1965       H  0.00513519  0.39383628  0.62710274    -0.05900
O1966       O  0.95386700  0.32621231  0.71287381    -0.87400
H1967       H  0.93272196  0.27725309  0.73214783    -0.05700
H1968       H  0.95237240  0.43372056  0.69992788    -0.05900
C1969       C  0.94155827  0.29268830  0.71206638     0.87600
C1970       C  0.97888936  0.36845731  0.62767334     0.88200
C1971       C  0.95433534  0.40932205  0.69998519     0.88300
H1972       H  0.82248964  0.26703341  0.71255578    -0.05900
O1973       O  0.84300642  0.24946779  0.64773224    -0.74900
Mg1974     Mg  0.93060482  0.34851114  0.74365987     1.58000
H1975       H  0.87465372  0.22750085  0.63856332    -0.05900
C1976       C  0.53413456  0.31762107  0.66332587     0.93300
O1977       O  0.53070339  0.38936513  0.73220187    -0.82100
C1978       C  0.52229563  0.39781127  0.75652064     0.93300
O1979       O  0.92099969  0.28539905  0.56530918    -0.82100
Mg1980     Mg  0.82569005  0.29230748  0.64985942     1.58200
O1981       O  0.53194787  0.33647592  0.68404125    -0.80500
O1982       O  0.81475953  0.35707796  0.69372671    -0.82100
C1983       C  0.78399752  0.42459372  0.88302517    -0.10200
C1984       C  0.77389995  0.39211319  0.89731887    -0.04100
C1985       C  0.78734104  0.36997210  0.88856024    -0.10200
C1986       C  0.80865269  0.37816576  0.86278183     0.10700
C1987       C  0.81722288  0.41021070  0.84686521    -0.02000
C1988       C  0.80552313  0.43406386  0.85748302     0.10500
C1989       C  0.81556043  0.46654148  0.84243005    -0.12000
C1990       C  0.83563806  0.47488983  0.81660502    -0.12000
C1991       C  0.84681887  0.45128702  0.80526657     0.10500
C1992       C  0.83829174  0.41897946  0.82084034    -0.02000
C1993       C  0.82178250  0.35569663  0.85264750    -0.12200
C1994       C  0.84181211  0.36379864  0.82660114    -0.12200
C1995       C  0.85002091  0.39505363  0.81019497     0.10700
C1996       C  0.86894684  0.40280060  0.78317421    -0.10200
C1997       C  0.87582361  0.43420309  0.76758729    -0.04100
C1998       C  0.86544432  0.45866046  0.77836524    -0.10200
H1999       H  0.80712296  0.48524261  0.85018663     0.08000
H2000       H  0.84148533  0.99959726  0.80524383     0.08000
H2001       H  0.81591442  0.33126526  0.86450388     0.08200
H2002       H  0.85071351  0.34529821  0.81931436     0.08200
H2003       H  0.75852921  0.38598428  0.91767380     0.04600
H2004       H  0.88932116  0.43959284  0.74648603     0.04600
C2005       C  0.52413896  0.29335581  0.44180642    -0.10200
C2006       C  0.53299746  0.26920811  0.42840994    -0.04100
C2007       C  0.52892122  0.23837200  0.44285646    -0.10200
C2008       C  0.51461752  0.23094494  0.47157404     0.10700
C2009       C  0.50394764  0.25448283  0.48494342    -0.02000
C2010       C  0.50884401  0.28584857  0.46999548     0.10500
C2011       C  0.49782047  0.30854351  0.48335254    -0.12000
C2012       C  0.98143983  0.30069586  0.51055569    -0.12000
C2013       C  0.97663466  0.27010158  0.52599242     0.10500
C2014       C  0.98821142  0.24706827  0.51299648    -0.02000
C2015       C  0.51012254  0.20051324  0.48708150    -0.12200
C2016       C  0.99581967  0.19392056  0.51504358    -0.12200
C2017       C  0.98455308  0.21647633  0.52838721     0.10700
C2018       C  0.97042158  0.20977549  0.55700155    -0.10200
C2019       C  0.95938829  0.23279255  0.56960049    -0.04100
C2020       C  0.96151033  0.26239568  0.55441406    -0.10200
H2021       H  0.50097712  0.33249283  0.47233667     0.08000
H2022       H  0.97315222  0.31884370  0.51982899     0.08000
H2023       H  0.51787204  0.18207088  0.47755337     0.08200
H2024       H  0.99349001  0.17047116  0.52630361     0.08200
H2025       H  0.54440447  0.27519492  0.40649709     0.04600
H2026       H  0.94839975  0.22721260  0.59163793     0.04600
C2027       C  0.71375471  0.25929059  0.44329217    -0.10200
C2028       C  0.74578917  0.29112213  0.43432471    -0.04100
C2029       C  0.77793669  0.30731164  0.45079336    -0.10200
C2030       C  0.77804436  0.29188936  0.47805624     0.10700
C2031       C  0.74569958  0.25960832  0.48791575    -0.02000
C2032       C  0.71340601  0.24320877  0.47050700     0.10500
C2033       C  0.68230946  0.21054868  0.48032820    -0.12000
C2034       C  0.68257915  0.19444204  0.50672784    -0.12000
C2035       C  0.71404840  0.21011817  0.52423228     0.10500
C2036       C  0.74601865  0.24304582  0.51480836    -0.02000
C2037       C  0.80946804  0.30763631  0.49559937    -0.12200
C2038       C  0.80928081  0.29231518  0.52252420    -0.12200
C2039       C  0.77806834  0.25984134  0.53249053     0.10700
C2040       C  0.77744141  0.24412213  0.55996005    -0.10200
C2041       C  0.74599427  0.21142540  0.56832982    -0.04100
C2042       C  0.71453128  0.19402448  0.55106000    -0.10200
H2043       H  0.65738795  0.19702564  0.46767357     0.08000
H2044       H  0.65790939  0.16937804  0.51330969     0.08000
H2045       H  0.83432778  0.33235461  0.48875878     0.08200
H2046       H  0.83405272  0.30612745  0.53533191     0.08200
H2047       H  0.74637248  0.30240374  0.41304710     0.04600
H2048       H  0.74548688  0.19993203  0.58944802     0.04600
C2049       C  0.75843652  0.45524783  0.45209576    -0.10200
C2050       C  0.72432754  0.44266580  0.43965992    -0.04100
C2051       C  0.70181142  0.45563514  0.44866595    -0.10200
C2052       C  0.71193126  0.47942247  0.47298571     0.10700
C2053       C  0.74583092  0.49062218  0.48718011    -0.02000
C2054       C  0.76947158  0.47873551  0.47650471     0.10500
C2055       C  0.80306888  0.49037646  0.49054667    -0.12000
C2056       C  0.81301164  0.01294459  0.51526522    -0.12000
C2057       C  0.79019926  0.02543612  0.52593058     0.10500
C2058       C  0.75658812  0.01464721  0.51140780    -0.02000
C2059       C  0.68940489  0.49234844  0.48341501    -0.12200
C2060       C  0.69940873  0.01500063  0.50778717    -0.12200
C2061       C  0.73284940  0.02645577  0.52201482     0.10700
C2062       C  0.74330611  0.04919395  0.54683696    -0.10200
C2063       C  0.77690064  0.06093970  0.55994646    -0.04100
C2064       C  0.79954847  0.04811935  0.55093080    -0.10200
H2065       H  0.82147552  0.48149945  0.48284446     0.08000
H2066       H  0.83882345  0.02088406  0.52576653     0.08000
H2067       H  0.66349018  0.48428549  0.47303909     0.08200
H2068       H  0.68098458  0.02390737  0.51538039     0.08200
H2069       H  0.71708058  0.42576754  0.42016546     0.04600
H2070       H  0.78357917  0.07706019  0.57983805     0.04600
C2071       C  0.50227264  0.03420206  0.99898047     0.02900
C2072       C  0.53599302  0.03460460  0.99702919     0.02900
C2073       C  0.53568189  0.00131530  0.99275366     0.02900
C2074       C  0.50204505  0.46809977  0.98913511     0.02900
C2075       C  0.96843117  0.46849534  0.98907505     0.02900
C2076       C  0.96888701  0.00135167  0.99539312     0.02900
C2077       C  0.83697536  0.13569317  0.34857582     0.02900
C2078       C  0.87025597  0.16852025  0.34149300     0.02900
C2079       C  0.86970892  0.20025656  0.33338452     0.02900
C2080       C  0.83586219  0.19872473  0.32967731     0.02900
C2081       C  0.80216095  0.16570979  0.33557016     0.02900
C2082       C  0.80281052  0.13437622  0.34600981     0.02900
C2083       C  0.66515271  0.36737145  0.65529576     0.02900
C2084       C  0.69805796  0.36665863  0.65213210     0.02900
C2085       C  0.69837855  0.33443355  0.65949461     0.02900
C2086       C  0.66570097  0.30283840  0.66954172     0.02900
C2087       C  0.63239816  0.30288126  0.67136241     0.02900
C2088       C  0.63275102  0.33597333  0.66627013     0.02900
C2089       C  0.56826344  0.31765246  0.65739500    -0.15800
C2090       C  0.59912355  0.33760542  0.67254747    -0.31000
H2091       H  0.56838448  0.30131920  0.63914417     0.13200
H2092       H  0.59940949  0.35427722  0.69060068     0.13800
C2093       C  0.75539957  0.33902540  0.67736887    -0.15800
C2094       C  0.73291245  0.33363879  0.65509271    -0.31000
H2095       H  0.74771764  0.34314167  0.69906623     0.13200
H2096       H  0.74098705  0.33143638  0.63302990     0.13800
C2097       C  0.76214150  0.41367096  0.66230954    -0.15800
C2098       C  0.73339407  0.40095066  0.64419177    -0.31000
H2099       H  0.75793295  0.40009685  0.68311303     0.13200
H2100       H  0.73522014  0.41599921  0.62458461     0.13800
C2101       C  0.56803894  0.25747901  0.68942654    -0.15800
C2102       C  0.59675937  0.26671761  0.67137351    -0.31000
H2103       H  0.57109266  0.27444680  0.70817472     0.13200
H2104       H  0.59354033  0.24759113  0.65421809     0.13800
C2105       C  0.67907779  0.25361220  0.66131998    -0.15800
C2106       C  0.66568000  0.26927083  0.67875979    -0.31000
H2107       H  0.68985202  0.26550701  0.64002894     0.13200
H2108       H  0.65072656  0.25515909  0.69841505     0.13800
C2109       C  0.65573511  0.41913922  0.66456025    -0.15800
C2110       C  0.66459018  0.40067580  0.64582794    -0.31000
H2111       H  0.64988409  0.40996022  0.68703655     0.13200
H2112       H  0.67382090  0.41122037  0.62396445     0.13800
C2113       C  0.52108784  0.09956199  0.99076805    -0.15800
C2114       C  0.50134343  0.06829910  0.00601167    -0.31000
H2115       H  0.53747547  0.09984844  0.97235256     0.13200
H2116       H  0.98311344  0.06748902  0.02369837     0.13800
C2117       C  0.00109766  0.43299049  0.98334203    -0.15800
C2118       C  0.98479392  0.40476872  0.00220170    -0.31000
H2119       H  0.01550005  0.43124017  0.96431549     0.13200
H2120       H  0.97383109  0.40851104  0.02243994     0.13800
C2121       C  0.57173720  0.07001380  0.99734290    -0.15800
C2122       C  0.58122184  0.09516320  0.01855262    -0.31000
H2123       H  0.58947333  0.07653385  0.97833762     0.13200
H2124       H  0.56542528  0.08826205  0.03868109     0.13800
C2125       C  0.91594683  0.40943121  0.00305908    -0.15800
C2126       C  0.93331251  0.43425923  0.98209049    -0.31000
H2127       H  0.92614412  0.41664141  0.02518397     0.13200
H2128       H  0.92416377  0.42830351  0.95967542     0.13800
C2129       C  0.92455613  0.01959959  0.98020507    -0.15800
C2130       C  0.93342192  0.00027555  0.99794198    -0.31000
H2131       H  0.94306398  0.03579063  0.96262272     0.13200
H2132       H  0.91331110  0.98124911  0.01355778     0.13800
C2133       C  0.58034957  0.48681340  0.01447355    -0.15800
C2134       C  0.57068376  0.50152040  0.99285986    -0.31000
H2135       H  0.56255276  0.47498602  0.03338986     0.13200
H2136       H  0.58968905  0.51589837  0.97503737     0.13800
C2137       C  0.83758287  0.10194270  0.35704965    -0.15800
C2138       C  0.85432682  0.08889227  0.34007630    -0.31000
H2139       H  0.82121230  0.08585361  0.37555085     0.13200
H2140       H  0.86730906  0.10319806  0.31994354     0.13800
C2141       C  0.81767570  0.24482582  0.33627341    -0.15800
C2142       C  0.83633544  0.23271114  0.32087515    -0.31000
H2143       H  0.80213673  0.22959870  0.35538895     0.13200
H2144       H  0.85559541  0.25006277  0.30408191     0.13800
C2145       C  0.73989550  0.08574076  0.33349638    -0.15800
C2146       C  0.76766333  0.09940357  0.35251197    -0.31000
H2147       H  0.74416841  0.09909738  0.31250943     0.13200
H2148       H  0.76485389  0.08485527  0.37264093     0.13800
C2149       C  0.90481467  0.23627252  0.33481159    -0.15800
C2150       C  0.93096368  0.24771138  0.31406434    -0.31000
H2151       H  0.91075099  0.25133551  0.35516457     0.13200
H2152       H  0.92461285  0.23412259  0.29303597     0.13800
C2153       C  0.73951365  0.15471747  0.34871399    -0.15800
C2154       C  0.76659662  0.16411145  0.32892130    -0.31000
H2155       H  0.74383392  0.14969735  0.37108097     0.13200
H2156       H  0.76367933  0.17287725  0.30742539     0.13800
C2157       C  0.90656323  0.17114995  0.34460016    -0.15800
C2158       C  0.92780645  0.17580227  0.32110825    -0.31000
H2159       H  0.91588786  0.16991545  0.36628215     0.13200
H2160       H  0.91681576  0.17400543  0.29948290     0.13800
O2161       O  0.64626410  0.68488193  0.31215185    -0.87700
C2162       C  0.54733560  0.59034279  0.30177996     0.88300
Mg2163     Mg  0.67026287  0.70835848  0.35384655     1.58100
O2164       O  0.55203699  0.67431720  0.28481460    -0.87500
O2165       O  0.63464475  0.69741491  0.26882364    -0.74800
C2166       C  0.53996219  0.71558222  0.42616245     0.93300
O2167       O  0.61001752  0.61637774  0.35513408    -0.74600
O2168       O  0.56920341  0.71559437  0.43237669    -0.82100
Mg2169     Mg  0.62883607  0.62843623  0.30697162     1.58000
C2170       C  0.96493149  0.68149181  0.32338059     0.93300
O2171       O  0.64821999  0.63612707  0.25942534    -0.80400
H2172       H  0.57306019  0.72258217  0.26432568    -0.05700
C2173       C  0.51707450  0.63381518  0.36912504     0.88200
O2174       O  0.65163811  0.75018767  0.35001517    -0.74900
O2175       O  0.57518759  0.61876821  0.29376394    -0.87700
O2176       O  0.97758487  0.67169684  0.30240883    -0.80500
C2177       C  0.98541069  0.60305474  0.23958644     0.93400
C2178       C  0.62908971  0.61955895  0.23717208     0.93200
Mg2179     Mg  0.54194587  0.71028827  0.35575189     1.58000
O2180       O  0.52190441  0.69974491  0.40333964    -0.80400
O2181       O  0.56078110  0.72421644  0.30704927    -0.74600
O2182       O  0.51738892  0.60825334  0.23606714    -0.80500
O2183       O  0.68661883  0.63963436  0.31976541    -0.82200
O2184       O  0.65199488  0.73138883  0.42498191    -0.80500
C2185       C  0.56237501  0.70744145  0.28440721     0.87700
O2186       O  0.59596009  0.72217410  0.36792571    -0.87600
O2187       O  0.52678944  0.65502742  0.34822400    -0.87700
O2188       O  0.53742345  0.64134444  0.39134270    -0.74800
Mg2189     Mg  0.57610130  0.65045070  0.25649894     1.58000
O2190       O  0.97638316  0.61351819  0.26242264    -0.82200
H2191       H  0.68252125  0.72989278  0.29023272    -0.05900
O2192       O  0.62028106  0.66760826  0.37568831    -0.87400
H2193       H  0.59947767  0.62050027  0.39775227    -0.05700
H2194       H  0.62130749  0.77445555  0.35481936    -0.05900
C2195       C  0.60978531  0.63454052  0.37720009     0.87600
C2196       C  0.65574139  0.70513896  0.29060587     0.88200
C2197       C  0.62284251  0.75005069  0.35790033     0.88300
H2198       H  0.49072131  0.60856403  0.36862173    -0.05900
O2199       O  0.51806334  0.59012035  0.30815513    -0.74900
Mg2200     Mg  0.59512464  0.68931691  0.40438294     1.58000
H2201       H  0.54808958  0.56539196  0.30389976    -0.05900
C2202       C  0.70598288  0.65596896  0.34204668     0.93300
O2203       O  0.69581008  0.73307791  0.39680707    -0.82100
C2204       C  0.68536817  0.74026021  0.42059144     0.93300
O2205       O  0.60073783  0.62113639  0.23047379    -0.82100
Mg2206     Mg  0.50180546  0.63409444  0.30614150     1.58200
O2207       O  0.69783611  0.67440600  0.35902724    -0.80500
O2208       O  0.98384452  0.69598086  0.34599167    -0.82100
C2209       C  0.63844025  0.59509457  0.22103854    -0.10200
C2210       C  0.63125505  0.56280863  0.23516573    -0.04100
C2211       C  0.64072495  0.53860809  0.22255897    -0.10200
C2212       C  0.65917102  0.54723893  0.19560045     0.10700
C2213       C  0.66757217  0.58025186  0.18139278    -0.02000
C2214       C  0.65645177  0.60388443  0.19372521     0.10500
C2215       C  0.66430331  0.63587538  0.17868280    -0.12000
C2216       C  0.68300483  0.64468851  0.15210314    -0.12000
C2217       C  0.69520380  0.62224732  0.14016284     0.10500
C2218       C  0.68754354  0.58984243  0.15490356    -0.02000
C2219       C  0.67009906  0.52411642  0.18281363    -0.12200
C2220       C  0.68955404  0.53353295  0.15663904    -0.12200
C2221       C  0.69887149  0.56644319  0.14259316     0.10700
C2222       C  0.71899119  0.57671456  0.11629521    -0.10200
C2223       C  0.72746290  0.60916289  0.10270615    -0.04100
C2224       C  0.71452953  0.63088613  0.11355750    -0.10200
H2225       H  0.65604117  0.65431580  0.18736317     0.08000
H2226       H  0.68848218  0.66957926  0.14120214     0.08000
H2227       H  0.66396432  0.99875613  0.19300718     0.08200
H2228       H  0.69774140  0.51515409  0.14766478     0.08200
H2229       H  0.61784360  0.55627353  0.25635027     0.04600
H2230       H  0.74136711  0.61584031  0.08165601     0.04600
C2231       C  0.95438791  0.57848410  0.22012169    -0.10200
C2232       C  0.92729849  0.54641738  0.23393857    -0.04100
C2233       C  0.89286147  0.52366933  0.22174233    -0.10200
C2234       C  0.88575883  0.53077854  0.19356516     0.10700
C2235       C  0.91198498  0.56362893  0.17907460    -0.02000
C2236       C  0.94620903  0.58825088  0.19253274     0.10500
C2237       C  0.97009837  0.62173464  0.17828859    -0.12000
C2238       C  0.96071760  0.63071307  0.15136059    -0.12000
C2239       C  0.92738299  0.60626646  0.13741376     0.10500
C2240       C  0.90316747  0.57206665  0.15146000    -0.02000
C2241       C  0.85280255  0.50595319  0.17979088    -0.12200
C2242       C  0.84570281  0.51267990  0.15188497    -0.12200
C2243       C  0.87030960  0.54547743  0.13755317     0.10700
C2244       C  0.86302423  0.55201686  0.10932093    -0.10200
C2245       C  0.88535986  0.58605722  0.09636675    -0.04100
C2246       C  0.91728916  0.61371312  0.10958409    -0.10200
H2247       H  0.49608297  0.64005914  0.18833141     0.08000
H2248       H  0.97988652  0.65677068  0.14132880     0.08000
H2249       H  0.83272321  0.98064767  0.19025633     0.08200
H2250       H  0.82027863  0.49225772  0.14183369     0.08200
H2251       H  0.93222465  0.54024419  0.25578098     0.04600
H2252       H  0.87858728  0.59040745  0.07455837     0.04600
O2253       O  0.52415340  0.86858766  0.34629146    -0.87700
C2254       C  0.62025954  0.87657593  0.36514364     0.88300
Mg2255     Mg  0.50460146  0.86184041  0.30264472     1.58100
O2256       O  0.61508769  0.95693998  0.37709281    -0.87500
O2257       O  0.53077765  0.89660835  0.38777659    -0.74800
C2258       C  0.63168029  0.00536498  0.23890220     0.93300
O2259       O  0.56423496  0.83432503  0.31050593    -0.74600
O2260       O  0.60499359  0.97444399  0.23129682    -0.82100
Mg2261     Mg  0.53995908  0.83059286  0.35704986     1.58000
C2262       C  0.70391665  0.55227947  0.33766757     0.93300
O2263       O  0.51567266  0.82339687  0.40238340    -0.80400
H2264       H  0.59345486  0.98363403  0.39688230    -0.05700
C2265       C  0.65848901  0.95206640  0.29656787     0.88200
O2266       O  0.51685241  0.92128433  0.30356826    -0.74900
O2267       O  0.59184063  0.87654348  0.37094015    -0.87700
O2268       O  0.69764928  0.53034156  0.35867021    -0.80500
C2269       C  0.67520498  0.95150707  0.42662264     0.93400
C2270       C  0.53309860  0.82676029  0.42557243     0.93200
Mg2271     Mg  0.62625096  0.99850190  0.30723651     1.58000
O2272       O  0.64968277  0.50834214  0.26168059    -0.80400
O2273       O  0.60502462  0.99582393  0.35398330    -0.74600
O2274       O  0.64193887  0.92512066  0.42820593    -0.80500
O2275       O  0.98264391  0.78414448  0.34440917    -0.82200
O2276       O  0.52787527  0.90845046  0.23888222    -0.80500
C2277       C  0.60439483  0.97907094  0.37702753     0.87700
O2278       O  0.57553492  0.95203634  0.29447578    -0.87600
O2279       O  0.64568502  0.96201989  0.31636339    -0.87700
O2280       O  0.64021454  0.93722199  0.27363934    -0.74800
Mg2281     Mg  0.58733703  0.90934742  0.40512919     1.58000
O2282       O  0.68815818  0.97219888  0.40448398    -0.82200
H2283       H  0.48583686  0.87834875  0.36207614    -0.05900
O2284       O  0.55798001  0.87570380  0.28717092    -0.87400
H2285       H  0.58108551  0.84959810  0.26859008    -0.05700
H2286       H  0.54660993  0.97688715  0.30017494    -0.05900
C2287       C  0.56837691  0.85329211  0.28777045     0.87600
C2288       C  0.51232754  0.88091557  0.36504965     0.88200
C2289       C  0.54656824  0.95142301  0.29927516     0.88300
H2290       H  0.68568493  0.95608530  0.29877565    -0.05900
O2291       O  0.64987310  0.90621727  0.35948035    -0.74900
Mg2292     Mg  0.58238542  0.92291906  0.25889087     1.58000
H2293       H  0.61973399  0.85086241  0.36430201    -0.05900
C2294       C  0.96831748  0.77884617  0.31940887     0.93300
O2295       O  0.98613146  0.85411136  0.25656634    -0.82100
C2296       C  0.99702889  0.87940140  0.23794128     0.93300
O2297       O  0.56057312  0.85748304  0.43290298    -0.82100
Mg2298     Mg  0.66717436  0.96713180  0.35931571     1.58200
O2299       O  0.98590741  0.80056676  0.29878882    -0.80500
O2300       O  0.68069001  0.54526900  0.31793902    -0.82100
O2301       O  0.86816630  0.87879366  0.32988671    -0.87700
C2302       C  0.79997087  0.89541187  0.27734442     0.88300
Mg2303     Mg  0.85011354  0.85563246  0.37297940     1.58100
O2304       O  0.87274220  0.97332117  0.31003033    -0.87500
O2305       O  0.91191605  0.92663557  0.30713911    -0.74800
C2306       C  0.78334073  0.94894328  0.43427046     0.93300
O2307       O  0.77917479  0.82958743  0.32637062    -0.74600
O2308       O  0.78113011  0.91810272  0.43598399    -0.82100
Mg2309     Mg  0.82879888  0.84839847  0.29563106     1.58000
C2310       C  0.85033776  0.55261471  0.34405657     0.93300
O2311       O  0.87240917  0.86075343  0.26027371    -0.80400
H2312       H  0.92649389  0.00982182  0.31384539    -0.05700
C2313       C  0.77357163  0.93234969  0.35008916     0.88200
O2314       O  0.88161452  0.91313459  0.39422602    -0.74900
O2315       O  0.82880765  0.89760452  0.28534429    -0.87700
O2316       O  0.85274693  0.53711498  0.32115815    -0.80500
C2317       C  0.86428464  0.99624378  0.24121443     0.93400
C2318       C  0.88919058  0.88382821  0.23985193     0.93200
Mg2319     Mg  0.84576320  0.98537684  0.38032588     1.58000
O2320       O  0.80159007  0.97220622  0.41441146    -0.80400
O2321       O  0.89594339  0.00459662  0.34984227    -0.74600
O2322       O  0.85738949  0.96352797  0.24121404    -0.80500
O2323       O  0.82969826  0.79663862  0.30739794    -0.82200
O2324       O  0.81719648  0.86927108  0.43521719    -0.80500
C2325       C  0.89952963  0.99646828  0.32388891     0.87700
O2326       O  0.84572351  0.93595166  0.39073969    -0.87600
O2327       O  0.80655405  0.95499768  0.34614348    -0.87700
O2328       O  0.76295918  0.90594090  0.36796591    -0.74800
Mg2329     Mg  0.88186012  0.94429949  0.27545342     1.58000
O2330       O  0.85129015  0.50726829  0.26101015    -0.82200
H2331       H  0.92138044  0.89767974  0.33735757    -0.05900
O2332       O  0.80234478  0.85974636  0.36670861    -0.87400
H2333       H  0.74855547  0.82365721  0.36239497    -0.05700
H2334       H  0.89481354  0.96320566  0.40999941    -0.05900
C2335       C  0.77560737  0.83702501  0.35252939     0.87600
C2336       C  0.90119519  0.90054333  0.32531163     0.88200
C2337       C  0.87470775  0.93856855  0.39889798     0.88300
H2338       H  0.75331349  0.93463449  0.33763117    -0.05900
O2339       O  0.79364323  0.92122386  0.28208486    -0.74900
Mg2340     Mg  0.79251398  0.88862314  0.40054127     1.58000
H2341       H  0.77957245  0.87091888  0.26625628    -0.05900
C2342       C  0.82317245  0.78152378  0.33235875     0.93300
O2343       O  0.82641542  0.82698989  0.41666212    -0.82100
C2344       C  0.81117097  0.83675829  0.43558742     0.93300
O2345       O  0.89142793  0.91469777  0.23899962    -0.82100
Mg2346     Mg  0.82573243  0.97863404  0.30361965     1.58200
O2347       O  0.82249302  0.79764688  0.35542919    -0.80500
O2348       O  0.84389320  0.53723474  0.36890901    -0.82100
C2349       C  0.96945578  0.87755395  0.21867524    -0.10200
C2350       C  0.94690013  0.88837954  0.23147660    -0.04100
C2351       C  0.91276449  0.87767385  0.22015653    -0.10200
C2352       C  0.90199574  0.85856798  0.19336146     0.10700
C2353       C  0.92570570  0.84850379  0.17945768    -0.02000
C2354       C  0.95942644  0.85754665  0.19253442     0.10500
C2355       C  0.98188089  0.84598422  0.17952211    -0.12000
C2356       C  0.97158256  0.82608338  0.15364525    -0.12000
C2357       C  0.93844903  0.81701576  0.14000882     0.10500
C2358       C  0.91519439  0.82832241  0.15310481    -0.02000
C2359       C  0.86861882  0.84924607  0.18018661    -0.12200
C2360       C  0.85884999  0.83066763  0.15361296    -0.12200
C2361       C  0.88167374  0.81987947  0.13984114     0.10700
C2362       C  0.87219175  0.80133237  0.11293550    -0.10200
C2363       C  0.89549108  0.79060062  0.10008480    -0.04100
C2364       C  0.92823302  0.79757590  0.11336833    -0.10200
H2365       H  0.50785938  0.85354424  0.19039030     0.08000
H2366       H  0.98988564  0.81796848  0.14433371     0.08000
H2367       H  0.85019641  0.85680715  0.19014916     0.08200
H2368       H  0.83309771  0.82461052  0.14400980     0.08200
H2369       H  0.95456135  0.90237561  0.25239959     0.04600
H2370       H  0.88813960  0.77682978  0.07914706     0.04600
O2371       O  0.71411688  0.53269031  0.01111441    -0.87700
C2372       C  0.73387573  0.96256837  0.05784160     0.88300
Mg2373     Mg  0.68917214  0.51673771  0.96940422     1.58100
O2374       O  0.81133617  0.53575827  0.02456027    -0.87500
O2375       O  0.76491951  0.57528180  0.03137607    -0.74800
C2376       C  0.77874770  0.95014452  0.90030330     0.93300
O2377       O  0.66411821  0.94216256  0.01329907    -0.74600
O2378       O  0.74786826  0.94807888  0.89985114    -0.82100
Mg2379     Mg  0.68555107  0.99092781  0.04446074     1.58000
C2380       C  0.88799420  0.51571623  0.98216801     0.93300
O2381       O  0.70049958  0.53387309  0.07908748    -0.80400
H2382       H  0.84740822  0.58969154  0.02187732    -0.05700
C2383       C  0.76744634  0.93849810  0.98293759     0.88200
O2384       O  0.74538485  0.54783923  0.94599226    -0.74900
O2385       O  0.73580262  0.99150579  0.05060473    -0.87700
O2386       O  0.87300199  0.51138199  0.00714618    -0.80500
C2387       C  0.83517428  0.52324972  0.09070096     0.93400
C2388       C  0.72475558  0.55205263  0.09807224     0.93200
Mg2389     Mg  0.81809475  0.51298095  0.95281049     1.58000
O2390       O  0.80331608  0.96925801  0.91882355    -0.80400
O2391       O  0.83917911  0.56180888  0.98399371    -0.74600
O2392       O  0.80231430  0.51606010  0.09178481    -0.80500
O2393       O  0.63203196  0.99041680  0.03748968    -0.82200
O2394       O  0.70217581  0.98702552  0.90637175    -0.80500
C2395       C  0.83342947  0.56346256  0.01089421     0.87700
O2396       O  0.76797727  0.51176136  0.94713944    -0.87600
O2397       O  0.79063891  0.97130777  0.98667122    -0.87700
O2398       O  0.73928750  0.92840002  0.96722040    -0.74800
Mg2399     Mg  0.78327261  0.54375621  0.06058908     1.58000
O2400       O  0.84600599  0.51095362  0.07020442    -0.82200
H2401       H  0.73393412  0.58619051  0.00447297    -0.05900
O2402       O  0.69315820  0.96828392  0.97319062    -0.87400
H2403       H  0.65622483  0.91452842  0.97534559    -0.05700
H2404       H  0.79444628  0.56089739  0.92777873    -0.05900
C2405       C  0.67037199  0.94062076  0.98651325     0.87600
C2406       C  0.73707849  0.56544094  0.01533903     0.88200
C2407       C  0.77037013  0.54082273  0.93967445     0.88300
H2408       H  0.77063424  0.91791786  0.99405044    -0.05900
O2409       O  0.75943404  0.95626183  0.05167285    -0.74900
Mg2410     Mg  0.72078408  0.95938647  0.93757575     1.58000
H2411       H  0.70986577  0.94209407  0.06956860    -0.05900
C2412       C  0.61670767  0.98981026  0.01363346     0.93300
O2413       O  0.65917141  0.99368642  0.92738793    -0.82100
C2414       C  0.66944086  0.98010585  0.90754074     0.93300
O2415       O  0.75554793  0.55391013  0.09854107    -0.82100
Mg2416     Mg  0.81591708  0.98765671  0.02821680     1.58200
O2417       O  0.63246284  0.99350583  0.98917035    -0.80500
O2418       O  0.87178011  0.51494383  0.95884977    -0.82100
O2419       O  0.70049720  0.69003803  0.98613144    -0.87700
C2420       C  0.70915501  0.78755863  0.97175138     0.88300
Mg2421     Mg  0.69662936  0.66884261  0.02913825     1.58100
O2422       O  0.78919659  0.78194454  0.95867543    -0.87500
O2423       O  0.72784085  0.69800198  0.94417205    -0.74800
C2424       C  0.83910209  0.79369649  0.09665546     0.93300
O2425       O  0.66801288  0.72834585  0.02573741    -0.74600
O2426       O  0.80796948  0.76649775  0.10342752    -0.82100
Mg2427     Mg  0.66255065  0.70714530  0.97813496     1.58000
C2428       C  0.88488583  0.87196555  0.99855920     0.93300
O2429       O  0.65110996  0.68654504  0.93078586    -0.80400
H2430       H  0.81762404  0.76330277  0.93724193    -0.05700
C2431       C  0.78485155  0.82258340  0.04028133     0.88200
O2432       O  0.75678458  0.68348161  0.02579101    -0.74900
O2433       O  0.70855199  0.75924867  0.96463223    -0.87700
O2434       O  0.86376427  0.86370623  0.97671407    -0.80500
C2435       C  0.78398387  0.84349793  0.91036671     0.93400
C2436       C  0.65812885  0.70502352  0.90737445     0.93200
Mg2437     Mg  0.83309998  0.79296958  0.02778058     1.58000
O2438       O  0.84265700  0.81312345  0.07463392    -0.80400
O2439       O  0.83088782  0.77455288  0.97997934    -0.74600
O2440       O  0.75781100  0.81040061  0.90869202    -0.80500
O2441       O  0.61670866  0.64942353  0.99069953    -0.82200
O2442       O  0.74266989  0.69029298  0.09440082    -0.80500
C2443       C  0.81268302  0.77298657  0.95758604     0.87700
O2444       O  0.78731043  0.74077682  0.03933991    -0.87600
O2445       O  0.79541958  0.81121131  0.01990049    -0.87700
O2446       O  0.77010815  0.80302704  0.06278181    -0.74800
Mg2447     Mg  0.74167224  0.75570813  0.92993503     1.58000
O2448       O  0.80483411  0.85619557  0.93232535    -0.82200
H2449       H  0.70780533  0.65129266  0.96803827    -0.05900
O2450       O  0.70980041  0.72100553  0.04716070    -0.87400
H2451       H  0.68343795  0.74246782  0.06786453    -0.05700
H2452       H  0.81239566  0.71304092  0.02934652    -0.05900
C2453       C  0.68711770  0.73107236  0.04792913     0.87600
C2454       C  0.71162135  0.67842308  0.96633651     0.88200
C2455       C  0.78678887  0.71261449  0.03169764     0.88300
H2456       H  0.78827715  0.84958227  0.03898951    -0.05900
O2457       O  0.73907907  0.81653522  0.97799639    -0.74900
Mg2458     Mg  0.75677826  0.74485266  0.07556169     1.58000
H2459       H  0.68363245  0.78742681  0.97333751    -0.05900
C2460       C  0.61261506  0.63275645  0.01461651     0.93300
O2461       O  0.69271210  0.64573881  0.07301307    -0.82100
C2462       C  0.71610123  0.65755182  0.09321543     0.93300
O2463       O  0.69032369  0.73145258  0.90153324    -0.82100
Mg2464     Mg  0.80013495  0.83383079  0.97716612     1.58200
O2465       O  0.63565367  0.64761812  0.03486870    -0.80500
O2466       O  0.87848063  0.84927145  0.01869075    -0.82100
O2467       O  0.51718166  0.81009090  0.01921010    -0.87700
C2468       C  0.92307414  0.70831643  0.03120111     0.88300
Mg2469     Mg  0.53699137  0.83809684  0.97724424     1.58100
O2470       O  0.51018977  0.71466278  0.04435999    -0.87500
O2471       O  0.53190602  0.79680298  0.06115741    -0.74800
C2472       C  0.54779619  0.71427633  0.90153583     0.93300
O2473       O  0.94406039  0.77255794  0.97894548    -0.74600
O2474       O  0.54698743  0.74304112  0.89508179    -0.85700
Mg2475     Mg  0.95899142  0.78930334  0.02717625     1.58000
C2476       C  0.52023225  0.63358122  0.99592203     0.93300
O2477       O  0.96970738  0.80780402  0.07468052    -0.80400
H2478       H  0.56009432  0.73855074  0.06227444    -0.05700
C2479       C  0.96543187  0.68465305  0.95952953     0.88200
O2480       O  0.58170844  0.82319541  0.97530855    -0.74900
O2481       O  0.95191133  0.73623241  0.03795512    -0.87700
O2482       O  0.00174604  0.63611224  0.01720314    -0.80500
C2483       C  0.94032940  0.64533273  0.08969329     0.93400
C2484       C  0.95252034  0.78804430  0.09653959     0.93200
Mg2485     Mg  0.54427104  0.71445393  0.97032419     1.58000
O2486       O  0.53015936  0.69526742  0.92347757    -0.80400
O2487       O  0.56040446  0.73115670  0.01855551    -0.74600
O2488       O  0.94593522  0.67764090  0.09452191    -0.80500
O2489       O  0.96819741  0.84584928  0.01866702    -0.82200
O2490       O  0.55726222  0.82489729  0.90324706    -0.80500
C2491       C  0.54395604  0.72822723  0.04269177     0.87700
O2492       O  0.55142162  0.76710034  0.95997584    -0.87600
O2493       O  0.98725689  0.69338700  0.97992392    -0.87700
O2494       O  0.97182011  0.70619768  0.93809284    -0.74800
Mg2495     Mg  0.98506132  0.73728618  0.07393901     1.58000
O2496       O  0.94932444  0.63715195  0.06552304    -0.82200
H2497       H  0.56341462  0.84536727  0.04003681    -0.05900
O2498       O  0.99450535  0.78831203  0.95388350    -0.87400
H2499       H  0.94501500  0.76488887  0.93534489    -0.05700
H2500       H  0.60562370  0.79321781  0.96669519    -0.05900
C2501       C  0.96081803  0.77516791  0.95508591     0.87600
C2502       C  0.53860952  0.81863845  0.03987480     0.88200
C2503       C  0.58071589  0.79433739  0.96695031     0.88300
H2504       H  0.94052162  0.65800613  0.95975300    -0.05900
O2505       O  0.92297284  0.67950387  0.02397229    -0.74900
Mg2506     Mg  0.51785963  0.76592945  0.92427698     1.58000
H2507       H  0.89770278  0.70855824  0.03108533    -0.05900
C2508       C  0.98459431  0.87002897  0.99911756     0.93300
O2509       O  0.55692256  0.86591294  0.93347660    -0.82100
C2510       C  0.56457604  0.85759197  0.90879615     0.93300
O2511       O  0.95423577  0.75954748  0.10242370    -0.82100
Mg2512     Mg  0.96817412  0.66499400  0.02155513     1.58200
O2513       O  0.50303181  0.86595501  0.97938285    -0.80500
O2514       O  0.53695681  0.65919911  0.97765740    -0.82100
O2515       O  0.69702474  0.55053643  0.65305385    -0.87700
C2516       C  0.62411594  0.55970478  0.60202280     0.88300
Mg2517     Mg  0.68008938  0.52713013  0.69577658     1.58100
O2518       O  0.69598374  0.64087280  0.63223093    -0.87500
O2519       O  0.73905115  0.59834521  0.62917956    -0.74800
C2520       C  0.61414317  0.61746553  0.76191268     0.93300
O2521       O  0.60832563  0.49729729  0.65168414    -0.74600
O2522       O  0.61352834  0.58738197  0.76332723    -0.82100
Mg2523     Mg  0.65783893  0.51723423  0.62009023     1.58000
C2524       C  0.67354092  0.71719104  0.66645841     0.93300
O2525       O  0.70190902  0.53211367  0.58548200    -0.80400
H2526       H  0.74973325  0.67764511  0.63566809    -0.05700
C2527       C  0.59881593  0.59886713  0.67750084     0.88200
O2528       O  0.71197736  0.58462882  0.71696407    -0.74900
O2529       O  0.65441336  0.56434295  0.60871053    -0.87700
O2530       O  0.67230767  0.69953678  0.64385771    -0.80500
C2531       C  0.68228470  0.66240287  0.56476307     0.93400
C2532       C  0.71820121  0.55469902  0.56473938     0.93200
Mg2533     Mg  0.67197047  0.65312714  0.70437727     1.58000
O2534       O  0.62941004  0.64003666  0.74088161    -0.80400
O2535       O  0.72007606  0.67189435  0.67219118    -0.74600
O2536       O  0.67866859  0.63080267  0.56438937    -0.80500
O2537       O  0.66355709  0.96774301  0.63266959    -0.82200
O2538       O  0.64935139  0.54001023  0.75877054    -0.80500
C2539       C  0.72294180  0.66413132  0.64596619     0.87700
O2540       O  0.67444598  0.60563775  0.71531091    -0.87600
O2541       O  0.63153062  0.62005881  0.67151897    -0.87700
O2542       O  0.58923491  0.57368975  0.69630533    -0.74800
Mg2543     Mg  0.70621282  0.61308915  0.59778759     1.58000
O2544       O  0.66502288  0.66966130  0.58365285    -0.82200
H2545       H  0.75076093  0.57143213  0.65975974    -0.05900
O2546       O  0.63165906  0.53039167  0.69078888    -0.87400
H2547       H  0.57817823  0.49244107  0.68788468    -0.05700
H2548       H  0.72433327  0.63427331  0.73317769    -0.05900
C2549       C  0.60492284  0.50622662  0.67745797     0.87600
C2550       C  0.72971559  0.57302224  0.64787932     0.88200
C2551       C  0.70424569  0.60932738  0.72240831     0.88300
H2552       H  0.57797277  0.60147256  0.66625005    -0.05900
O2553       O  0.61548630  0.58369712  0.60766430    -0.74900
Mg2554     Mg  0.62237496  0.55808515  0.72625539     1.58000
H2555       H  0.60425954  0.53438104  0.59157423    -0.05900
C2556       C  0.65666187  0.95352053  0.65797921     0.93300
O2557       O  0.65732961  0.49795867  0.73821706    -0.82100
C2558       C  0.64299971  0.50750327  0.75791044     0.93300
O2559       O  0.71762282  0.58407719  0.56187896    -0.82100
Mg2560     Mg  0.64592756  0.64169550  0.62786454     1.58200
O2561       O  0.65084096  0.96877725  0.67931393    -0.80500
O2562       O  0.66894234  0.70374350  0.69195820    -0.82100
C2563       C  0.57200937  0.70404741  0.88582360    -0.10200
C2564       C  0.60362707  0.71017938  0.90039521    -0.04100
C2565       C  0.62688627  0.69865589  0.88894153    -0.10200
C2566       C  0.61871140  0.68073008  0.86169597     0.10700
C2567       C  0.58581488  0.67264699  0.84734229    -0.02000
C2568       C  0.56240831  0.68434128  0.85936550     0.10500
C2569       C  0.52967185  0.67524664  0.84498027    -0.12000
C2570       C  0.51977429  0.65470032  0.81940727    -0.12000
C2571       C  0.54239852  0.64278072  0.80734076     0.10500
C2572       C  0.57593343  0.65221551  0.82110544    -0.02000
C2573       C  0.64199937  0.67009528  0.84865372    -0.12200
C2574       C  0.63317104  0.65178225  0.82190683    -0.12200
C2575       C  0.60006101  0.64218675  0.80804080     0.10700
C2576       C  0.58987122  0.62269532  0.78141711    -0.10200
C2577       C  0.55568384  0.61103847  0.76972405    -0.04100
C2578       C  0.53270383  0.62187943  0.78157719    -0.10200
H2579       H  0.51126936  0.68365960  0.85356773     0.08000
H2580       H  0.99515551  0.64914612  0.80822850     0.08000
H2581       H  0.66735571  0.67609964  0.85897721     0.08200
H2582       H  0.65192772  0.64431048  0.81248160     0.08200
H2583       H  0.61002041  0.72381747  0.92140107     0.04600
H2584       H  0.54844972  0.59648422  0.74902810     0.04600
C2585       C  0.64137064  0.95116880  0.88929405    -0.10200
C2586       C  0.61923100  0.91716914  0.90228977    -0.04100
C2587       C  0.58762780  0.88918789  0.88889806    -0.10200
C2588       C  0.57802912  0.89608577  0.86064034     0.10700
C2589       C  0.60203784  0.93041548  0.84671375    -0.02000
C2590       C  0.63416554  0.95756984  0.86107796     0.10500
C2591       C  0.65827193  0.99087941  0.84721729    -0.12000
C2592       C  0.65161883  0.99749130  0.81924560    -0.12000
C2593       C  0.61976651  0.97175263  0.80469474     0.10500
C2594       C  0.59384256  0.93837270  0.81868213    -0.02000
C2595       C  0.54538774  0.87101735  0.84612338    -0.12200
C2596       C  0.53670653  0.87936868  0.81860526    -0.12200
C2597       C  0.56058254  0.91289475  0.80438134     0.10700
C2598       C  0.55351804  0.92189440  0.77600377    -0.10200
C2599       C  0.58069902  0.95424633  0.76256390    -0.04100
C2600       C  0.61377411  0.97844997  0.77612536    -0.10200
H2601       H  0.68302911  0.01190115  0.85767414     0.08000
H2602       H  0.67162664  0.52335481  0.80930134     0.08000
H2603       H  0.52630857  0.84487034  0.85606948     0.08200
H2604       H  0.01190104  0.85977796  0.80729115     0.08200
H2605       H  0.62596279  0.91306109  0.92418239     0.04600
H2606       H  0.57662930  0.96017872  0.74039696     0.04600
O2607       O  0.85574639  0.53594414  0.68317479    -0.87700
C2608       C  0.95710955  0.54975133  0.69756565     0.88300
Mg2609     Mg  0.83435495  0.53341829  0.64018584     1.58100
O2610       O  0.94316166  0.62337001  0.71251139    -0.87500
O2611       O  0.86140550  0.55915950  0.72650371    -0.74800
C2612       C  0.96471752  0.67817971  0.57449237     0.93300
O2613       O  0.89740376  0.50583489  0.64272282    -0.74600
O2614       O  0.93886482  0.64624007  0.56772150    -0.82100
Mg2615     Mg  0.87680156  0.50007366  0.68996136     1.58000
C2616       C  0.53176595  0.72425952  0.68350498     0.93300
O2617       O  0.85489787  0.98477701  0.73654528    -0.80400
H2618       H  0.91931505  0.64772221  0.73278406    -0.05700
C2619       C  0.99021415  0.62419436  0.63351367     0.88200
O2620       O  0.85110873  0.59411858  0.64231385    -0.74900
O2621       O  0.92740605  0.54707422  0.70360341    -0.87700
O2622       O  0.51617990  0.70033786  0.70326285    -0.80500
C2623       C  0.50519378  0.61899444  0.76154587     0.93400
C2624       C  0.87320983  0.49048346  0.75995077     0.93200
Mg2625     Mg  0.96004836  0.67246016  0.64419239     1.58000
O2626       O  0.98296732  0.68412085  0.59776919    -0.80400
O2627       O  0.93602341  0.66534672  0.69123957    -0.74600
O2628       O  0.97509704  0.59097435  0.75990215    -0.80500
O2629       O  0.82157115  0.95336708  0.67807003    -0.82200
O2630       O  0.85941181  0.57777344  0.57163036    -0.80500
C2631       C  0.93218828  0.64530829  0.71316935     0.87700
O2632       O  0.90881573  0.62578175  0.62969209    -0.87600
O2633       O  0.97829000  0.63565380  0.65288194    -0.87700
O2634       O  0.97125523  0.60820026  0.61107972    -0.74800
Mg2635     Mg  0.91998450  0.57491810  0.74002287     1.58000
O2636       O  0.51597762  0.64406756  0.74271728    -0.82200
H2637       H  0.81513213  0.53956807  0.70227580    -0.05900
O2638       O  0.88698068  0.54567566  0.62186490    -0.87400
H2639       H  0.90857305  0.52021051  0.60014222    -0.05700
H2640       H  0.87969743  0.64962953  0.63868425    -0.05900
C2641       C  0.89778094  0.52369502  0.62051370     0.87600
C2642       C  0.84275601  0.54451768  0.70372604     0.88200
C2643       C  0.88002524  0.62442610  0.63664726     0.88300
H2644       H  0.01715138  0.62758650  0.63578460    -0.05900
O2645       O  0.98588141  0.58091392  0.69363396    -0.74900
Mg2646     Mg  0.91394986  0.59417013  0.59466089     1.58000
H2647       H  0.95856419  0.52517851  0.69528641    -0.05900
C2648       C  0.79806930  0.94727369  0.65866273     0.93300
O2649       O  0.81304192  0.53066777  0.59508568    -0.82100
C2650       C  0.82610672  0.55159512  0.57305184     0.93300
O2651       O  0.89870090  0.52254819  0.76679567    -0.82100
Mg2652     Mg  0.99724975  0.64014453  0.69673647     1.58200
O2653       O  0.80408581  0.97028975  0.63858649    -0.80500
O2654       O  0.51685490  0.71960174  0.65872017    -0.82100
O2655       O  0.97163969  0.84718292  0.64837209    -0.87700
C2656       C  0.87244558  0.75174256  0.63872468     0.88300
Mg2657     Mg  0.00162736  0.86846576  0.68868747     1.58100
O2658       O  0.87385441  0.83471693  0.62626913    -0.87500
O2659       O  0.95645777  0.86104720  0.60700845    -0.74800
C2660       C  0.87801452  0.87726529  0.76796966     0.93300
O2661       O  0.93807316  0.77565452  0.68831247    -0.74600
O2662       O  0.90782497  0.87778325  0.77308597    -0.82100
Mg2663     Mg  0.95241114  0.79069060  0.63966032     1.58000
C2664       C  0.79115153  0.84124730  0.67379394     0.93300
O2665       O  0.97016475  0.80375826  0.59230159    -0.80400
H2666       H  0.89299167  0.88328736  0.60675116    -0.05700
C2667       C  0.84860168  0.79271409  0.71150936     0.88200
O2668       O  0.98391462  0.91121714  0.69156913    -0.74900
O2669       O  0.89884088  0.78146558  0.63115641    -0.87700
O2670       O  0.79671257  0.82567275  0.65230041    -0.80500
C2671       C  0.80640256  0.76304142  0.58237097     0.93400
C2672       C  0.95080550  0.78581156  0.57075762     0.93200
Mg2673     Mg  0.87304771  0.86960831  0.69943752     1.58000
O2674       O  0.85735810  0.85756866  0.74748424    -0.80400
O2675       O  0.88685803  0.88468752  0.65058721    -0.74600
O2676       O  0.83955521  0.77161107  0.57722603    -0.80500
O2677       O  0.50784467  0.79943220  0.64600101    -0.82200
O2678       O  0.99041400  0.89057107  0.76176128    -0.80500
C2679       C  0.88464848  0.86792576  0.62687966     0.87700
O2680       O  0.92793997  0.87992326  0.70772258    -0.87600
O2681       O  0.85516557  0.81365536  0.69070228    -0.87700
O2682       O  0.87161246  0.80086691  0.73206062    -0.74800
Mg2683     Mg  0.89773185  0.81341268  0.59540653     1.58000
O2684       O  0.79662236  0.77004976  0.60669078    -0.82200
H2685       H  0.00524092  0.89388703  0.62716625    -0.05900
O2686       O  0.95399016  0.82625090  0.71292890    -0.87400
H2687       H  0.93272047  0.77727115  0.73219035    -0.05700
H2688       H  0.95257630  0.93378480  0.69989693    -0.05900
C2689       C  0.94160224  0.79271279  0.71211324     0.87600
C2690       C  0.97900857  0.86849318  0.62772880     0.88200
C2691       C  0.95452752  0.90937958  0.69994941     0.88300
H2692       H  0.82260324  0.76709826  0.71245803    -0.05900
O2693       O  0.84306928  0.74947149  0.64763047    -0.74900
Mg2694     Mg  0.93070570  0.84861208  0.74361781     1.58000
H2695       H  0.87476599  0.72755025  0.63849864    -0.05900
C2696       C  0.53395481  0.81741712  0.66336945     0.93300
O2697       O  0.53054551  0.88915587  0.73226748    -0.82100
C2698       C  0.52214614  0.89764630  0.75656966     0.93300
O2699       O  0.92116252  0.78542244  0.56534183    -0.82100
Mg2700     Mg  0.82574628  0.79230451  0.64974652     1.58200
O2701       O  0.53179456  0.83629447  0.68407816    -0.80500
O2702       O  0.81494290  0.85728470  0.69350635    -0.82100
C2703       C  0.78411359  0.92447627  0.88303971    -0.10200
C2704       C  0.77412892  0.89202602  0.89734205    -0.04100
C2705       C  0.78746902  0.86983749  0.88845881    -0.10200
C2706       C  0.80866777  0.87803880  0.86261781     0.10700
C2707       C  0.81714092  0.91006859  0.84671670    -0.02000
C2708       C  0.80544580  0.93389775  0.85739800     0.10500
C2709       C  0.81532251  0.96632149  0.84232163    -0.12000
C2710       C  0.83530048  0.97467511  0.81644716    -0.12000
C2711       C  0.84655493  0.95114198  0.80508550     0.10500
C2712       C  0.83813351  0.91886034  0.82065081    -0.02000
C2713       C  0.82180935  0.85560637  0.85242100    -0.12200
C2714       C  0.84180198  0.86375571  0.82635628    -0.12200
C2715       C  0.84993458  0.89500643  0.80997673     0.10700
C2716       C  0.86886735  0.90282040  0.78295906    -0.10200
C2717       C  0.87564951  0.93419793  0.76738185    -0.04100
C2718       C  0.86518295  0.95857851  0.77818262    -0.10200
H2719       H  0.80685930  0.98498927  0.85011236     0.08000
H2720       H  0.84192810  0.49984634  0.80540597     0.08000
H2721       H  0.81601113  0.83118517  0.86425882     0.08200
H2722       H  0.85074251  0.84529763  0.81903916     0.08200
H2723       H  0.75888869  0.88592876  0.91775966     0.04600
H2724       H  0.88916339  0.93964187  0.74628471     0.04600
C2725       C  0.52427407  0.79349399  0.44188870    -0.10200
C2726       C  0.53320869  0.76940052  0.42849830    -0.04100
C2727       C  0.52906927  0.73851682  0.44290433    -0.10200
C2728       C  0.51466261  0.73100043  0.47158849     0.10700
C2729       C  0.50395151  0.75450062  0.48496624    -0.02000
C2730       C  0.50888652  0.78590609  0.47005151     0.10500
C2731       C  0.49780949  0.80855374  0.48341483    -0.12000
C2732       C  0.98159600  0.80074345  0.51064658    -0.12000
C2733       C  0.97677410  0.77012667  0.52605699     0.10500
C2734       C  0.98831984  0.74708339  0.51303451    -0.02000
C2735       C  0.51010738  0.70051596  0.48705235    -0.12200
C2736       C  0.99586522  0.69389615  0.51502467    -0.12200
C2737       C  0.98463653  0.71646578  0.52840045     0.10700
C2738       C  0.97051802  0.70975579  0.55702126    -0.10200
C2739       C  0.95952162  0.73278897  0.56964680    -0.04100
C2740       C  0.96166191  0.76241060  0.55447884    -0.10200
H2741       H  0.50099275  0.83252874  0.47242419     0.08000
H2742       H  0.97333441  0.81890132  0.51994121     0.08000
H2743       H  0.51788407  0.68209995  0.47751275     0.08200
H2744       H  0.99351355  0.67042495  0.52626440     0.08200
H2745       H  0.54468431  0.77544319  0.40660764     0.04600
H2746       H  0.94853959  0.72720216  0.59168622     0.04600
C2747       C  0.71392151  0.75941472  0.44322148    -0.10200
C2748       C  0.74597436  0.79122013  0.43424285    -0.04100
C2749       C  0.77814521  0.80735047  0.45068406    -0.10200
C2750       C  0.77826296  0.79189770  0.47792860     0.10700
C2751       C  0.74590012  0.75964620  0.48779888    -0.02000
C2752       C  0.71358308  0.74330475  0.47041808     0.10500
C2753       C  0.68246784  0.71066642  0.48024500    -0.12000
C2754       C  0.68274200  0.69452463  0.50662215    -0.12000
C2755       C  0.71422985  0.71014867  0.52410282     0.10500
C2756       C  0.74621883  0.74305506  0.51467520    -0.02000
C2757       C  0.80971153  0.80758582  0.49544393    -0.12200
C2758       C  0.80952039  0.79224876  0.52236280    -0.12200
C2759       C  0.77828057  0.75980857  0.53234396     0.10700
C2760       C  0.77763434  0.74408336  0.55981591    -0.10200
C2761       C  0.74618012  0.71138452  0.56817329    -0.04100
C2762       C  0.71470886  0.69402152  0.55091193    -0.10200
H2763       H  0.65752675  0.69718565  0.46761267     0.08000
H2764       H  0.65805701  0.66947732  0.51320749     0.08000
H2765       H  0.83459083  0.83227636  0.48859078     0.08200
H2766       H  0.83430974  0.80602002  0.53515236     0.08200
H2767       H  0.74655146  0.80251982  0.41297499     0.04600
H2768       H  0.74566468  0.69987483  0.58928420     0.04600
C2769       C  0.75864046  0.95536027  0.45207050    -0.10200
C2770       C  0.72456453  0.94278630  0.43956961    -0.04100
C2771       C  0.70198669  0.95569656  0.44855209    -0.10200
C2772       C  0.71200856  0.97943493  0.47289463     0.10700
C2773       C  0.74589143  0.99067748  0.48712582    -0.02000
C2774       C  0.76959702  0.97884504  0.47648427     0.10500
C2775       C  0.80318151  0.99054235  0.49056212    -0.12000
C2776       C  0.81296959  0.51277288  0.51525760    -0.12000
C2777       C  0.79022606  0.52532805  0.52595567     0.10500
C2778       C  0.75661249  0.51460622  0.51145462    -0.02000
C2779       C  0.68940480  0.99228308  0.48330350    -0.12200
C2780       C  0.69950098  0.51509919  0.50788171    -0.12200
C2781       C  0.73295359  0.52649782  0.52207576     0.10700
C2782       C  0.74348993  0.54925258  0.54688453    -0.10200
C2783       C  0.77707569  0.56092663  0.55998267    -0.04100
C2784       C  0.79964815  0.54802230  0.55095831    -0.10200
H2785       H  0.82163877  0.98171439  0.48288970     0.08000
H2786       H  0.83878247  0.52066243  0.52573583     0.08000
H2787       H  0.66349888  0.98418440  0.47289732     0.08200
H2788       H  0.68113464  0.52406994  0.51549151     0.08200
H2789       H  0.71737717  0.92591367  0.42006441     0.04600
H2790       H  0.78380062  0.57705899  0.57987075     0.04600
C2791       C  0.50226651  0.53439394  0.99907006     0.02900
C2792       C  0.53595373  0.53469457  0.99745611     0.02900
C2793       C  0.53558873  0.50136026  0.99335739     0.02900
C2794       C  0.50213590  0.96798176  0.98865466     0.02900
C2795       C  0.96862823  0.96853849  0.98915561     0.02900
C2796       C  0.96880503  0.50135919  0.99534063     0.02900
C2797       C  0.83691272  0.63573126  0.34871045     0.02900
C2798       C  0.87018228  0.66855256  0.34159447     0.02900
C2799       C  0.86960671  0.70026300  0.33345975     0.02900
C2800       C  0.83574819  0.69868952  0.32970804     0.02900
C2801       C  0.80206399  0.66567049  0.33562468     0.02900
C2802       C  0.80273427  0.63437440  0.34612111     0.02900
C2803       C  0.66502405  0.86730464  0.65526069     0.02900
C2804       C  0.69794937  0.86662682  0.65210481     0.02900
C2805       C  0.69832947  0.83443942  0.65949746     0.02900
C2806       C  0.66565921  0.80282712  0.66952847     0.02900
C2807       C  0.63232899  0.80282338  0.67132314     0.02900
C2808       C  0.63263497  0.83588985  0.66622324     0.02900
C2809       C  0.56809670  0.81748231  0.65739872    -0.15800
C2810       C  0.59898791  0.83749276  0.67250725    -0.31000
H2811       H  0.56819862  0.80112739  0.63915730     0.13200
H2812       H  0.59928618  0.85419336  0.69054213     0.13800
C2813       C  0.75551666  0.83923273  0.67727946    -0.15800
C2814       C  0.73287951  0.83365693  0.65506460    -0.31000
H2815       H  0.74796562  0.84351951  0.69897152     0.13200
H2816       H  0.74080215  0.83122382  0.63300629     0.13800
C2817       C  0.76196130  0.91372477  0.66228595    -0.15800
C2818       C  0.73324512  0.90092607  0.64413989    -0.31000
H2819       H  0.75775021  0.90018888  0.68310814     0.13200
H2820       H  0.73506203  0.91591645  0.62449927     0.13800
C2821       C  0.56798998  0.75738448  0.68936215    -0.15800
C2822       C  0.59671649  0.76664328  0.67131525    -0.31000
H2823       H  0.57103384  0.77433610  0.70811933     0.13200
H2824       H  0.59351441  0.74753910  0.65414595     0.13800
C2825       C  0.67897119  0.75359469  0.66119985    -0.15800
C2826       C  0.66566939  0.76927242  0.67871601    -0.31000
H2827       H  0.68965983  0.76548643  0.63989224     0.13200
H2828       H  0.65079361  0.75517692  0.69840123     0.13800
C2829       C  0.65559199  0.91906026  0.66454394    -0.15800
C2830       C  0.66443168  0.90059541  0.64579931    -0.31000
H2831       H  0.64976105  0.90988442  0.68702173     0.13200
H2832       H  0.67363652  0.91113408  0.62393083     0.13800
C2833       C  0.52131397  0.59980059  0.99086377    -0.15800
C2834       C  0.50138806  0.56851969  0.00603926    -0.31000
H2835       H  0.53776992  0.60007023  0.97250539     0.13200
H2836       H  0.98322188  0.56752051  0.02365179     0.13800
C2837       C  0.00147622  0.93320083  0.98347663    -0.15800
C2838       C  0.98539643  0.90502905  0.00239786    -0.31000
H2839       H  0.01575226  0.93144535  0.96436527     0.13200
H2840       H  0.97452677  0.90878411  0.02268406     0.13800
C2841       C  0.57174257  0.57005359  0.99776609    -0.15800
C2842       C  0.58122445  0.59533741  0.01886103    -0.31000
H2843       H  0.58955272  0.57642090  0.97882618     0.13200
H2844       H  0.56535752  0.58862316  0.03894346     0.13800
C2845       C  0.91633267  0.90922576  0.00293978    -0.15800
C2846       C  0.93357828  0.93426023  0.98208512    -0.31000
H2847       H  0.92655826  0.91628970  0.02506455     0.13200
H2848       H  0.92430813  0.92852699  0.95969142     0.13800
C2849       C  0.92449975  0.51965699  0.98015638    -0.15800
C2850       C  0.93339423  0.50039132  0.99793799    -0.31000
H2851       H  0.94297300  0.53577250  0.96253268     0.13200
H2852       H  0.91331426  0.48143923  0.01360658     0.13800
C2853       C  0.58043931  0.98685658  0.01399193    -0.15800
C2854       C  0.57081777  0.00155202  0.99233411    -0.31000
H2855       H  0.56255671  0.97496056  0.03285496     0.13200
H2856       H  0.58988100  0.01598260  0.97455535     0.13800
C2857       C  0.83753793  0.60200322  0.35718616    -0.15800
C2858       C  0.85417231  0.58890747  0.34014217    -0.31000
H2859       H  0.82122436  0.58594516  0.37572010     0.13200
H2860       H  0.86708200  0.60319030  0.31998459     0.13800
C2861       C  0.81747043  0.74473802  0.33614714    -0.15800
C2862       C  0.83619090  0.73263394  0.32082325    -0.31000
H2863       H  0.80190649  0.72953467  0.35526145     0.13200
H2864       H  0.85548459  0.74997859  0.30404473     0.13800
C2865       C  0.73983964  0.58569085  0.33359925    -0.15800
C2866       C  0.76759300  0.59938976  0.35263165    -0.31000
H2867       H  0.74413304  0.59901903  0.31259697     0.13200
H2868       H  0.76477701  0.58486989  0.37277805     0.13800
C2869       C  0.90468800  0.73629370  0.33488971    -0.15800
C2870       C  0.93086727  0.74771074  0.31417306    -0.31000
H2871       H  0.91057968  0.75139095  0.35522257     0.13200
H2872       H  0.92455472  0.73409135  0.29315832     0.13800
C2873       C  0.73945012  0.65469842  0.34877518    -0.15800
C2874       C  0.76648992  0.66402498  0.32896064    -0.31000
H2875       H  0.74381396  0.64976219  0.37115414     0.13200
H2876       H  0.76353628  0.67271342  0.30744369     0.13800
C2877       C  0.90650334  0.67118935  0.34464548    -0.15800
C2878       C  0.92766357  0.67574973  0.32111315    -0.31000
H2879       H  0.91590693  0.67003686  0.36631560     0.13200
H2880       H  0.91659307  0.67387773  0.29950834     0.13800
loop_ 
_geom_bond_atom_site_label_1 
_geom_bond_atom_site_label_2 
_geom_bond_distance 
_geom_bond_site_symmetry_2 
_ccdc_geom_bond_type 
O1           Mg3   2.161       .  S
O1           Mg9   2.129       .  S
O1           C36   1.235       .  S
C2           O15   1.233       .  S
C2           O39   1.268       .  A
C2           H41   1.081       .  S
Mg3          O32   2.169       .  S
Mg3          O47   2.288       .  S
Mg3          O43   2.241       .  S
Mg3          O14   2.292       .  S
O4          Mg46   2.158       .  S
O4          Mg29   2.192       .  S
O4           C25   1.240       .  S
O5           C36   1.272       .  A
O5          Mg29   2.320       .  S
C6            O8   1.274       .  A
C6           O20   1.271       .  A
C6          C567   1.485       .  S
O7           C35   1.274       .  A
O7           Mg9   2.314       .  S
O8          Mg40   2.310       .  S
Mg9          O15   2.185       .  S
Mg9          O23   2.323       .  S
Mg9          O11   2.294       .  S
C10          O48   1.266       .  A
C10          O16   1.267       .  A
C10         C718   1.474       .  S
O11          C18   1.273       .  A
H12          C25   1.081       .  S
C13          O27   1.234       .  S
C13          O28   1.272       .  A
C13          H38   1.081   1_455  S
O14          C37   1.268       .  A
O15         Mg29   2.171       .  S
O16       Mg1486   2.288       .  S
C17          O30   1.268       .  A
C17        O1462   1.284       .  A
C17          C71   1.491       .  S
C18          O45   1.278       .  A
C18          C49   1.484       .  S
Mg19         O26   2.155       .  S
Mg19         O27   2.118       .  S
Mg19         O20   2.299       .  S
Mg19         O21   2.344       .  S
Mg19       O1488   2.269   1_455  S
O21          C25   1.279       .  A
O22        C1457   1.284   1_455  A
O22         Mg29   2.392       .  S
O23          C42   1.275       .  A
O24          C44   1.278       .  A
O24         Mg40   2.345       .  S
O26         Mg40   2.173       .  S
O26          C37   1.234       .  S
O27         Mg46   2.169       .  S
O28         Mg40   2.323       .  S
Mg29         O45   2.320       .  S
O30       Mg1486   2.237       .  S
H31          C36   1.081       .  S
O32         Mg40   2.169       .  S
O32          C35   1.238       .  S
H33          C35   1.081       .  S
H34          C37   1.081       .  S
O39         Mg46   2.302       .  S
C42          O47   1.268       .  A
C42         C713   1.482       .  S
O43          C44   1.269       .  A
C44         C587   1.487       .  S
Mg46       O1456   2.289   1_455  S
Mg46       O1470   2.238   1_455  S
O48       Mg1459   2.268       .  S
C49          C50   1.404       .  A
C49          C54   1.412       .  A
C50          H69   1.086       .  S
C50          C51   1.403       .  A
C51         C818   1.471       .  S
C51          C52   1.404       .  A
C52          C53   1.418       .  A
C52          C59   1.408       .  A
C53          C54   1.424       .  A
C53          C58   1.413       .  A
C54          C55   1.405       .  A
C55          H65   1.083       .  S
C55          C56   1.394       .  A
C56          H66   1.083       .  S
C56          C57   1.405       .  A
C57          C58   1.415       .  A
C57          C64   1.407       .  A
C58          C61   1.421       .  A
C59         H787   1.082   1_545  S
C59          C60   1.391       .  A
C60          H68   1.083       .  S
C60          C61   1.401       .  A
C61          C62   1.408       .  A
C62         C228   1.453       .  S
C62          C63   1.383       .  A
C63          H70   1.088       .  S
C63          C64   1.382       .  A
C64         C302   1.445       .  S
H67         C779   1.082       .  S
C71          C72   1.403       .  A
C71          C76   1.434       .  A
C72          H91   1.087       .  S
C72          C73   1.394       .  A
C73         C877   1.476   1_545  S
C73          C74   1.400       .  A
C74          C75   1.424       .  A
C74          C81   1.401       .  A
C75          C76   1.426       .  A
C75          C80   1.424       .  A
C76          C77   1.412       .  A
C77        H1527   1.083       .  S
C77          C78   1.415       .  A
C78          H88   1.083       .  S
C78          C79   1.410       .  A
C79          C80   1.430       .  A
C79          C86   1.438       .  A
C80          C83   1.421       .  A
C81         H809   1.083   1_545  S
C81          C82   1.383       .  A
C82          H90   1.083   1_545  S
C82          C83   1.402       .  A
C83          C84   1.397       .  A
C84         C227   1.465       .  S
C84          C85   1.390       .  A
C85          H92   1.087       .  S
C85          C86   1.399       .  A
C86         C323   1.497       .  S
H87        C1517   1.083       .  S
H89         C801   1.083       .  S
O93         Mg95   2.142       .  S
O93        Mg101   2.103       .  S
O93         C128   1.236       .  S
C94         O107   1.231       .  S
C94         O131   1.266       .  A
C94         H133   1.081       .  S
Mg95        O124   2.138       .  S
Mg95        O106   2.304       .  S
Mg95       O1579   2.274   1_455  S
Mg95       O1575   2.200   1_455  S
O96        Mg138   2.172       .  S
O96        Mg121   2.161       .  S
O96         C117   1.235       .  S
O97         C128   1.273       .  A
O97        Mg121   2.322       .  S
C98         O100   1.267       .  A
C98         O832   1.264       .  A
C98         C771   1.472       .  S
O99         C127   1.277       .  A
O99        Mg101   2.337       .  S
O100       Mg132   2.274       .  S
Mg101       O107   2.160       .  S
Mg101       O103   2.264       .  S
Mg101      O1555   2.286   1_455  S
C102        O140   1.262       .  A
C102        O108   1.272       .  A
C102        C705   1.464       .  S
O103        C110   1.266       .  A
H104        C117   1.081       .  S
C105        O119   1.235       .  S
C105        O120   1.270       .  A
C105        H130   1.081       .  S
O106        C129   1.268       .  A
O107       Mg121   2.167       .  S
O108       Mg858   2.303   1_545  S
C109        O122   1.269       .  A
C109        O114   1.276       .  A
C109        C611   1.466       .  S
C110        O137   1.271       .  A
C110        C565   1.469       .  S
Mg111       O118   2.126       .  S
Mg111       O119   2.141       .  S
Mg111       O113   2.301       .  S
Mg111       O832   2.257       .  S
Mg111       O860   2.195       .  S
O112        C818   1.264       .  A
O112       Mg831   2.257   1_545  S
O113        C117   1.270       .  A
O114       Mg121   2.322       .  S
O115        C134   1.268       .  A
O115      Mg1541   2.284       .  S
O116       C1576   1.266   1_455  A
O116       Mg132   2.267       .  S
O118       Mg132   2.151       .  S
O118        C129   1.233       .  S
O119       Mg138   2.143       .  S
O120       Mg132   2.309       .  S
Mg121       O137   2.278       .  S
O122       Mg138   2.232       .  S
H123        C128   1.081   1_655  S
O124       Mg132   2.158       .  S
O124        C127   1.238       .  S
H125        C127   1.081       .  S
H126        C129   1.081       .  S
O131       Mg138   2.299       .  S
C134        O139   1.262       .  A
C134        C710   1.474       .  S
O135        C136   1.261       .  A
O135      Mg1535   2.193       .  S
C136       O1556   1.266       .  A
C136        C189   1.441       .  S
Mg138       O828   2.303       .  S
O139      Mg1535   2.275       .  S
O140       Mg831   2.196   1_545  S
O141       Mg143   2.166       .  S
O141       Mg149   2.178       .  S
O141        C176   1.236       .  S
C142        O155   1.237       .  S
C142        O179   1.273       .  A
C142        H181   1.081       .  S
Mg143       O172   2.144       .  S
Mg143       O187   2.263       .  S
Mg143       O183   2.292       .  S
Mg143       O154   2.313       .  S
O144       Mg186   2.141       .  S
O144       Mg169   2.161       .  S
O144        C165   1.234       .  S
O145        C176   1.271       .  A
O145       Mg169   2.308       .  S
C146        O148   1.267       .  A
C146        O160   1.272       .  A
C146        C609   1.454       .  S
O147        C175   1.269       .  A
O147       Mg149   2.300       .  S
O148       Mg180   2.244       .  S
Mg149       O155   2.147       .  S
Mg149       O163   2.288       .  S
Mg149       O151   2.301       .  S
C150        O188   1.273       .  A
C150        O156   1.269       .  A
C150        C698   1.476       .  S
O151        C158   1.276       .  A
H152        C165   1.081       .  S
C153        O167   1.237       .  S
C153        O168   1.273       .  A
C153        H178   1.081       .  S
O154        C177   1.273       .  A
O155       Mg169   2.147       .  S
O156       Mg906   2.283   1_545  S
C157        O162   1.265       .  A
C157        O890   1.266       .  A
C157        C793   1.476       .  S
C158        O185   1.266       .  A
C158        C191   1.463       .  S
Mg159       O166   2.151       .  S
Mg159       O167   2.171       .  S
Mg159       O160   2.271       .  S
Mg159       O161   2.310       .  S
Mg159       O908   2.302       .  S
O161        C165   1.270       .  A
O162       Mg169   2.263       .  S
O163        C182   1.274       .  A
O164        C184   1.269       .  A
O164       Mg180   2.286       .  S
O166       Mg180   2.159       .  S
O166        C177   1.237       .  S
O167       Mg186   2.156       .  S
O168       Mg180   2.312       .  S
Mg169       O185   2.250       .  S
O170        C877   1.266   1_545  A
O170       Mg906   2.264   1_545  S
H171        C176   1.081       .  S
O172       Mg180   2.142       .  S
O172        C175   1.235       .  S
H173        C175   1.081       .  S
H174        C177   1.081       .  S
O179       Mg186   2.319       .  S
C182        O187   1.267       .  A
C182        C701   1.464       .  S
O183        C184   1.268       .  A
C184        C589   1.482       .  S
Mg186       O876   2.284       .  S
Mg186       O890   2.264       .  S
O188       Mg879   2.302   1_545  S
C189        C190   1.382       .  A
C189        C194   1.404       .  A
C190        H209   1.089       .  S
C190        C191   1.381       .  A
C191        C192   1.417       .  A
C192        C193   1.425       .  A
C192        C199   1.401       .  A
C193        C194   1.414       .  A
C193        C198   1.417       .  A
C194        C195   1.405       .  A
C195       H1645   1.083       .  S
C195        C196   1.392       .  A
C196        H206   1.083       .  S
C196        C197   1.404       .  A
C197        C198   1.428       .  A
C197        C204   1.414       .  A
C198        C201   1.418       .  A
C199        H207   1.083       .  S
C199        C200   1.397       .  A
C200        H208   1.082       .  S
C200        C201   1.411       .  A
C201        C202   1.410       .  A
C202        C264   1.478       .  S
C202        C203   1.409       .  A
C203        H210   1.085       .  S
C203        C204   1.406       .  A
C204        C324   1.495       .  S
H205       C1635   1.083   1_455  S
O211       Mg213   2.129   1_554  S
O211       Mg939   2.188   1_545  S
O211        C246   1.237       .  S
C212        O225   1.236       .  S
C212        O249   1.273       .  A
C212        H251   1.081       .  S
Mg213       O962   2.157   1_545  S
Mg213       O224   2.307       .  S
Mg213       O977   2.275   1_545  S
Mg213       O973   2.242   1_545  S
O214       Mg239   2.157       .  S
O214       Mg976   2.156   1_545  S
O214        C235   1.233       .  S
O215        C246   1.271       .  A
O215       Mg239   2.301       .  S
C216        O218   1.266       .  A
C216        O230   1.268       .  A
C216        C543   1.454       .  S
O217        C245   1.265   1_554  A
O217       Mg219   2.287       .  S
O218       Mg250   2.252       .  S
Mg219       O225   2.142       .  S
Mg219       O931   2.188       .  S
Mg219       O233   2.287       .  S
Mg219       O941   2.248       .  S
C220        O258   1.269       .  A
C220        O226   1.275   1_556  A
C220        C689   1.470       .  S
O221        C228   1.269       .  A
O221       Mg939   2.247   1_545  S
H222        C235   1.081       .  S
C223        O237   1.238       .  S
C223        O238   1.272       .  A
C223        H248   1.081       .  S
O224        C247   1.271       .  A
O225       Mg959   2.149       .  S
O226       Mg976   2.301   1_545  S
C227        O240   1.267       .  A
C227        O232   1.265       .  A
C228        O255   1.268       .  A
Mg229       O236   2.116       .  S
Mg229       O957   2.190   1_545  S
Mg229       O231   2.291       .  S
Mg229       O258   2.250       .  S
Mg229       O950   2.252   1_545  S
O230       Mg949   2.251       .  S
O231        C235   1.266   1_556  A
O232       Mg239   2.258       .  S
O233        C252   1.273       .  A
O234        C254   1.263       .  A
O234       Mg250   2.243       .  S
O236       Mg970   2.142   1_545  S
O236        C247   1.235       .  S
O237       Mg256   2.129   1_556  S
O237       Mg949   2.189       .  S
O238       Mg250   2.301       .  S
Mg239       O945   2.149   1_545  S
Mg239       O255   2.256       .  S
O240       Mg976   2.252   1_545  S
H241        C246   1.081       .  S
O242       Mg250   2.146       .  S
O242       Mg933   2.157       .  S
O242        C245   1.232       .  S
H243        C245   1.081       .  S
H244        C247   1.081       .  S
O249       Mg256   2.318       .  S
Mg250       O956   2.142       .  S
C252        O257   1.271   1_554  A
C252        C693   1.478       .  S
O253        C254   1.265       .  A
O253       Mg933   2.242       .  S
C254        C425   1.461       .  S
Mg256       O934   2.155       .  S
Mg256       O946   2.300       .  S
Mg256       O960   2.252       .  S
O257       Mg933   2.275       .  S
O259       Mg261   2.146   1_556  S
O259       Mg267   2.114       .  S
O259        C294   1.233       .  S
C260        O273   1.232       .  S
C260        O297   1.267       .  A
C260        H299   1.081       .  S
Mg261       O290   2.149       .  S
Mg261       O305   2.272       .  S
Mg261       O301   2.213       .  S
Mg261       O272   2.299       .  S
O262       Mg304   2.178       .  S
O262       Mg287   2.182       .  S
O262        C283   1.235       .  S
O263        C294   1.269       .  A
O263       Mg287   2.306       .  S
C264        O266   1.267       .  A
C264        O278   1.267       .  A
O265        C293   1.275       .  A
O265       Mg267   2.330   1_554  S
O266       Mg298   2.277       .  S
Mg267       O273   2.152       .  S
Mg267       O281   2.281       .  S
Mg267       O269   2.300       .  S
C268        O306   1.262   1_556  A
C268        O274   1.274       .  A
C268        C685   1.468   1_556  S
O269        C276   1.274       .  A
H270        C283   1.081       .  S
C271        O285   1.233       .  S
C271        O286   1.269       .  A
C271        H296   1.081       .  S
O272        C295   1.269       .  A
O273       Mg287   2.169       .  S
O274       Mg304   2.319       .  S
C275        O288   1.269       .  A
C275        O280   1.269       .  A
C275        C545   1.455       .  S
C276        O303   1.272       .  A
C276        C405   1.481       .  S
Mg277       O284   2.128       .  S
Mg277       O285   2.142       .  S
Mg277       O278   2.280       .  S
Mg277       O279   2.310   1_554  S
Mg277       O306   2.202       .  S
O279        C283   1.271       .  A
O280       Mg287   2.273       .  S
O281        C300   1.270   1_556  A
O282        C302   1.264       .  A
O282       Mg298   2.249       .  S
O284       Mg298   2.158       .  S
O284        C295   1.235       .  S
O285       Mg304   2.149   1_554  S
O286       Mg298   2.307       .  S
Mg287       O303   2.286       .  S
O288       Mg304   2.235       .  S
H289        C294   1.081       .  S
O290       Mg298   2.160       .  S
O290        C293   1.237       .  S
H291        C293   1.081       .  S
H292        C295   1.081       .  S
O297       Mg304   2.299       .  S
C300        O305   1.263       .  A
C300        C682   1.470       .  S
O301        C302   1.263       .  A
O307       Mg309   2.191   1_554  S
O307      Mg1755   2.133   1_455  S
O307        C342   1.237       .  S
C308        O321   1.229       .  S
C308        O345   1.265       .  A
C308        H347   1.081       .  S
Mg309      O1778   2.182   1_455  S
Mg309       O353   2.290       .  S
Mg309       O349   2.262       .  S
Mg309       O320   2.287       .  S
O310      Mg1792   2.189   1_455  S
O310      Mg1775   2.200   1_455  S
O310        C331   1.240       .  S
O311        C342   1.276       .  A
O311      Mg1775   2.336   1_455  S
C312        O314   1.276       .  A
C312        O326   1.265       .  A
C312        C403   1.486       .  S
O313        C341   1.276       .  A
O313       Mg315   2.319   1_556  S
O314       Mg346   2.339       .  S
Mg315       O321   2.177       .  S
Mg315      O1747   2.129       .  S
Mg315       O329   2.263       .  S
Mg315       O317   2.283       .  S
C316        O354   1.264       .  A
C316       O1762   1.273   1_556  A
C316        C673   1.477       .  S
O317        C324   1.269       .  A
H318        C331   1.081       .  S
C319        O333   1.237       .  S
C319        O334   1.276       .  A
C319        H344   1.081       .  S
O320        C343   1.263       .  A
O321       Mg335   2.165       .  S
O322       C1756   1.273   1_554  A
O322       Mg352   2.314       .  S
C323        O336   1.274       .  A
C323        O328   1.285       .  A
C324        O351   1.279       .  A
Mg325       O332   2.152       .  S
Mg325      O1773   2.135   1_455  S
Mg325       O326   2.272       .  S
Mg325       O327   2.322   1_556  S
Mg325       O354   2.231       .  S
O327        C331   1.277       .  A
O328       Mg335   2.397       .  S
O329        C348   1.268       .  A
O330        C350   1.283       .  A
O330       Mg346   2.389       .  S
O332       Mg346   2.163       .  S
O332        C343   1.230       .  S
O333       Mg352   2.179   1_556  S
O333      Mg1765   2.135       .  S
O334      Mg1786   2.337       .  S
Mg335      O1750   2.199       .  S
Mg335       O351   2.355       .  S
Mg335      O1751   2.340       .  S
O336       Mg352   2.263       .  S
H337        C342   1.081       .  S
O338      Mg1749   2.179       .  S
O338      Mg1786   2.179       .  S
O338        C341   1.239       .  S
H339        C341   1.081       .  S
H340        C343   1.081       .  S
O345       Mg352   2.298       .  S
Mg346      O1778   2.179   1_455  S
Mg346      O1774   2.340   1_455  S
C348       O1793   1.269   1_554  A
C348        C678   1.476       .  S
O349        C350   1.274       .  A
C350        C427   1.497       .  S
Mg352      O1750   2.190       .  S
O353       C1788   1.270   1_455  A
O355       Mg357   2.152       .  S
O355       Mg363   2.165       .  S
O355        C390   1.236       .  S
C356        O369   1.237       .  S
C356        O393   1.272       .  A
C356        H395   1.081       .  S
Mg357       O386   2.146       .  S
Mg357       O397   2.246   1_545  S
Mg357       O368   2.313       .  S
Mg357      O1121   2.253   1_545  S
O358       Mg400   2.153       .  S
O358       Mg383   2.138       .  S
O358        C379   1.236       .  S
O359        C390   1.272       .  A
O359       Mg383   2.313       .  S
C360        O362   1.267       .  A
C360        O374   1.277       .  A
C360        C416   1.459       .  S
O361        C389   1.271   1_565  A
O361       Mg363   2.315   1_565  S
O362       Mg394   2.249       .  S
Mg363       O369   2.142       .  S
Mg363       O365   2.274       .  S
Mg363      O1097   2.308   1_545  S
C364        O402   1.274       .  A
C364        O370   1.263       .  A
C364        C665   1.461       .  S
O365        C372   1.274       .  A
H366        C379   1.080       .  S
C367        O381   1.234       .  S
C367        O382   1.269       .  A
C367        H392   1.081       .  S
O368        C391   1.272       .  A
O369       Mg383   2.162       .  S
O370       Mg400   2.231       .  S
C371        O384   1.266       .  A
C371        O376   1.270       .  A
C371        C602   1.481       .  S
C372        O399   1.268       .  A
C372        C622   1.455       .  S
Mg373       O380   2.135       .  S
Mg373       O381   2.179       .  S
Mg373       O374   2.298       .  S
Mg373       O375   2.293       .  S
Mg373       O402   2.293       .  S
O375        C379   1.269       .  A
O376       Mg383   2.284       .  S
O377        C396   1.273       .  A
O377      Mg1083   2.309       .  S
O378        C398   1.265       .  A
O378       Mg394   2.252       .  S
O380       Mg394   2.149       .  S
O380        C391   1.237       .  S
O381       Mg400   2.159       .  S
O382       Mg394   2.302       .  S
Mg383       O399   2.249       .  S
O384       Mg400   2.283       .  S
H385        C390   1.081       .  S
O386       Mg394   2.157       .  S
O386        C389   1.235       .  S
H387        C389   1.081   1_565  S
H388        C391   1.081       .  S
O393       Mg400   2.307       .  S
C396        O401   1.264       .  A
C396        C669   1.472       .  S
O397        C398   1.262   1_565  A
C398       C1160   1.474   1_545  S
O401      Mg1077   2.253       .  S
C403        C404   1.403       .  A
C403        C408   1.412       .  A
C404        H423   1.086       .  S
C404        C405   1.405       .  A
C405        C406   1.412       .  A
C406        C407   1.421       .  A
C406        C413   1.409       .  A
C407        C408   1.426       .  A
C407        C412   1.417       .  A
C408        C409   1.405       .  A
C409        H419   1.083       .  S
C409        C410   1.393       .  A
C410       H1860   1.083   1_455  S
C410        C411   1.404       .  A
C411        C412   1.417       .  A
C411        C418   1.408       .  A
C412        C415   1.423       .  A
C413        H421   1.083       .  S
C413        C414   1.398       .  A
C414        H422   1.083       .  S
C414        C415   1.403       .  A
C415        C416   1.414       .  A
C416        C417   1.382       .  A
C417        H424   1.089       .  S
C417        C418   1.381       .  A
C418        C463   1.446       .  S
H420       C1850   1.083       .  S
C425        C426   1.389       .  A
C425        C430   1.393       .  A
C426        H445   1.087       .  S
C426        C427   1.400       .  A
C427        C428   1.439       .  A
C428        C429   1.430       .  A
C428        C435   1.410       .  A
C429        C430   1.420       .  A
C429        C434   1.423       .  A
C430        C431   1.401       .  A
C431        H441   1.083       .  S
C431        C432   1.378       .  A
C432       H1162   1.083       .  S
C432        C433   1.399       .  A
C433        C434   1.424       .  A
C433        C440   1.397       .  A
C434        C437   1.426       .  A
C435        H443   1.083       .  S
C435        C436   1.416       .  A
C436       H1884   1.083       .  S
C436        C437   1.413       .  A
C437        C438   1.436       .  A
C438        C538   1.494       .  S
C438        C439   1.403       .  A
C439        H446   1.086       .  S
C439        C440   1.394       .  A
C440       C1118   1.474       .  S
H442       C1152   1.083   1_545  S
H444       C1876   1.083       .  S
O447       Mg449   2.157       .  S
O447       Mg455   2.147   1_545  S
O447        C482   1.234       .  S
C448        O461   1.234       .  S
C448        O485   1.270       .  A
C448        H487   1.081       .  S
Mg449       O478   2.175       .  S
Mg449       O489   2.244       .  S
Mg449       O460   2.298       .  S
Mg449      O1213   2.306   1_545  S
O450       Mg492   2.142       .  S
O450       Mg475   2.173       .  S
O450        C471   1.237       .  S
O451        C482   1.269       .  A
O451       Mg475   2.305       .  S
C452        O454   1.270       .  A
C452        O466   1.272       .  A
C452        C578   1.474       .  S
O453        C481   1.269       .  A
O453       Mg455   2.300   1_545  S
O454       Mg486   2.266       .  S
Mg455       O461   2.144   1_565  S
Mg455      O1189   2.222       .  S
Mg455      O1177   2.286       .  S
C456        O494   1.271       .  A
C456        O462   1.265       .  A
C456        C661   1.481       .  S
O457       C1184   1.269       .  A
O457      Mg1175   2.285       .  S
H458        C471   1.081       .  S
C459        O473   1.236       .  S
C459        O474   1.272       .  A
C459        H484   1.081       .  S
O460        C483   1.267       .  A
O461       Mg475   2.158       .  S
O462      Mg1932   2.292   1_455  S
C463        O476   1.261       .  A
C463       O1908   1.267   1_455  A
C464        O491   1.270   1_565  A
C464       O1177   1.269       .  A
C464       C1278   1.482       .  S
Mg465       O472   2.166       .  S
Mg465       O473   2.112       .  S
Mg465       O466   2.285       .  S
Mg465       O467   2.333       .  S
Mg465      O1934   2.305       .  S
O467        C471   1.276       .  A
O468       C1903   1.267       .  A
O468       Mg475   2.272       .  S
O469        C488   1.266       .  A
O469      Mg1175   2.221       .  S
O470        C490   1.274       .  A
O470       Mg486   2.311       .  S
O472       Mg486   2.171       .  S
O472        C483   1.232       .  S
O473       Mg492   2.149       .  S
O474       Mg486   2.318       .  S
Mg475       O491   2.285       .  S
O476      Mg1932   2.205   1_455  S
H477        C482   1.081       .  S
O478       Mg486   2.164       .  S
O478        C481   1.235       .  S
H479        C481   1.081       .  S
H480        C483   1.081       .  S
O485       Mg492   2.309       .  S
C488        O493   1.272       .  A
C488        C657   1.469       .  S
O489        C490   1.270       .  A
C490        C624   1.468       .  S
Mg492      O1902   2.295       .  S
Mg492      O1916   2.208       .  S
O493      Mg1169   2.306       .  S
O494      Mg1905   2.304   1_455  S
O495       Mg497   2.171       .  S
O495       Mg503   2.138       .  S
O495        C530   1.236       .  S
C496        O509   1.230       .  S
C496        O533   1.263       .  A
C496        H535   1.081       .  S
Mg497       O526   2.189       .  S
Mg497       O508   2.297       .  S
Mg497      O1981   2.310       .  S
Mg497      O1977   2.267       .  S
O498       Mg540   2.186       .  S
O498       Mg523   2.181       .  S
O498        C519   1.240       .  S
O499        C530   1.274       .  A
O499       Mg523   2.328       .  S
C500        O502   1.276       .  A
C500        O514   1.268       .  A
C500        C556   1.490       .  S
O501        C529   1.276       .  A
O501       Mg503   2.316       .  S
O502       Mg534   2.343       .  S
Mg503       O509   2.136       .  S
Mg503       O505   2.272       .  S
Mg503      O1957   2.204       .  S
C504        O542   1.267       .  A
C504        O510   1.272       .  A
C504        C653   1.475       .  S
O505        C512   1.265       .  A
H506        C519   1.081       .  S
C507        O521   1.237       .  S
C507        O522   1.276       .  A
C507        H532   1.081       .  S
O508        C531   1.265       .  A
O509       Mg523   2.151       .  S
O510       Mg540   2.306       .  S
C511        O524   1.275       .  A
C511        O516   1.279       .  A
C511        C600   1.489       .  S
C512        O539   1.275       .  A
C512        C580   1.489       .  S
Mg513       O520   2.172       .  S
Mg513       O521   2.130       .  S
Mg513       O514   2.281       .  S
Mg513       O515   2.321       .  S
Mg513       O542   2.258       .  S
O515        C519   1.276       .  A
O516       Mg523   2.338       .  S
O517        C536   1.260       .  A
O517      Mg1943   2.204   1_455  S
O518       C1978   1.283       .  A
O518       Mg534   2.382       .  S
O520       Mg534   2.165       .  S
O520        C531   1.230       .  S
O521       Mg540   2.186       .  S
O522       Mg534   2.338       .  S
Mg523       O539   2.341       .  S
O524       Mg540   2.270       .  S
H525        C530   1.081       .  S
O526       Mg534   2.188       .  S
O526        C529   1.240       .  S
H527        C529   1.081       .  S
H528        C531   1.081       .  S
O533       Mg540   2.286       .  S
C536        O541   1.275       .  A
C536        C649   1.470       .  S
O537        C538   1.275       .  A
O537      Mg1937   2.267       .  S
C538       O1958   1.283   1_455  A
O541      Mg1937   2.311       .  S
C543        C544   1.384       .  A
C543        C548   1.408       .  A
C544        H563   1.088       .  S
C544        C545   1.384       .  A
C545        C546   1.414       .  A
C546        C547   1.419       .  A
C546        C553   1.405       .  A
C547        C548   1.420       .  A
C547        C552   1.417       .  A
C548        C549   1.401       .  A
C549        H559   1.083       .  S
C549        C550   1.391       .  A
C550       H1280   1.082       .  S
C550        C551   1.407       .  A
C551        C552   1.421       .  A
C551        C558   1.408       .  A
C552        C555   1.424       .  A
C553        H561   1.083       .  S
C553        C554   1.398       .  A
C554        H562   1.083       .  S
C554        C555   1.407       .  A
C555        C556   1.416       .  A
C556        C557   1.407       .  A
C557        H564   1.085       .  S
C557        C558   1.407       .  A
C558       C1184   1.482       .  S
H560       C1270   1.082       .  S
C565        C566   1.399       .  A
C565        C570   1.405       .  A
C566        H585   1.086       .  S
C566        C567   1.400       .  A
C567        C568   1.415       .  A
C568        C569   1.427       .  A
C568        C575   1.402       .  A
C569        C570   1.418       .  A
C569       C2014   1.418   1_455  A
C570        C571   1.406   1_455  A
C571        H581   1.083   1_655  S
C571       C2012   1.391       .  A
C572        H582   1.083       .  S
C572        C573   1.402       .  A
C572       C2011   1.392       .  A
C573        C574   1.427       .  A
C573        C580   1.413       .  A
C574        C577   1.418       .  A
C574       C2009   1.418       .  A
C575        H583   1.083       .  S
C575       C2016   1.394   1_455  A
C576        H584   1.082       .  S
C576        C577   1.408       .  A
C576       C2015   1.394       .  A
C577        C578   1.408       .  A
C578        C579   1.404       .  A
C579        H586   1.086       .  S
C579        C580   1.402       .  A
C587        C588   1.397       .  A
C587        C592   1.423       .  A
C588        H607   1.085       .  S
C588        C589   1.398       .  A
C589        C590   1.417       .  A
C590        C591   1.425       .  A
C590        C597   1.404       .  A
C591        C592   1.426       .  A
C591        C596   1.428       .  A
C592        C593   1.408       .  A
C593        H603   1.081       .  S
C593        C594   1.398       .  A
C594        H604   1.083       .  S
C594        C595   1.404       .  A
C595        C596   1.424       .  A
C595        C602   1.417       .  A
C596        C599   1.426       .  A
C597        H605   1.083       .  S
C597        C598   1.398       .  A
C598        H606   1.081       .  S
C598        C599   1.409       .  A
C599        C600   1.424       .  A
C600        C601   1.396       .  A
C601        H608   1.082       .  S
C601        C602   1.398       .  A
C609        C610   1.386       .  A
C609        C614   1.410       .  A
C610        H629   1.088       .  S
C610        C611   1.385       .  A
C611        C612   1.417       .  A
C612        C613   1.425       .  A
C612        C619   1.404       .  A
C613        C614   1.417       .  A
C613       C1338   1.418       .  A
C614        C615   1.407       .  A
C615        H625   1.083       .  S
C615       C1336   1.399       .  A
C616        H626   1.083       .  S
C616        C617   1.405       .  A
C616       C1335   1.399   1_545  A
C617        C618   1.424       .  A
C617        C624   1.418       .  A
C618        C621   1.417       .  A
C618       C1333   1.418   1_545  A
C619        H627   1.083       .  S
C619       C1340   1.398       .  A
C620        H628   1.083       .  S
C620        C621   1.407       .  A
C620       C1339   1.399   1_545  A
C621        C622   1.411       .  A
C622        C623   1.387       .  A
C623        H630   1.088       .  S
C623        C624   1.385       .  A
C631        C674   1.503   1_556  S
C631        C632   1.423       .  A
C631       C2076   1.417   1_455  A
C632        C681   1.489       .  S
C632        C633   1.420       .  A
C633       C1414   1.485       .  S
C633       C1354   1.413   1_545  A
C634       C2117   1.499       .  S
C634       C1353   1.413       .  A
C634       C2075   1.416   1_455  A
C635        C686   1.491       .  S
C635       C2074   1.416       .  A
C635       C1356   1.416       .  A
C636        C690   1.484   1_545  S
C636       C2071   1.417       .  A
C636       C1355   1.416   1_545  A
C637        C697   1.499       .  S
C637        C638   1.419       .  A
C637        C642   1.425       .  A
C638        C717   1.492       .  S
C638        C639   1.411       .  A
C639        C709   1.490       .  S
C639        C640   1.414       .  A
C640        C702   1.491       .  S
C640        C641   1.421       .  A
C641        C714   1.507       .  S
C641        C642   1.429       .  A
C642        C706   1.496       .  S
C643        C670   1.493       .  S
C643        C644   1.417       .  A
C643        C648   1.425       .  A
C644        C658   1.501       .  S
C644        C645   1.418       .  A
C645        C654   1.494       .  S
C645        C646   1.420       .  A
C646        C666   1.488       .  S
C646        C647   1.414       .  A
C647        C662   1.502       .  S
C647        C648   1.418       .  A
C648        C650   1.489       .  S
C649        C650   1.337       .  D
C649        H651   1.088       .  S
C650        H652   1.084       .  S
C653        C654   1.341       .  D
C653        H655   1.087       .  S
C654        H656   1.086       .  S
C657        C658   1.344       .  D
C657        H659   1.083       .  S
C658        H660   1.086       .  S
C661        C662   1.348       .  D
C661        H663   1.086       .  S
C662        H664   1.087       .  S
C665        C666   1.335       .  D
C665        H667   1.086       .  S
C666        H668   1.087       .  S
C669        C670   1.337       .  D
C669        H671   1.086       .  S
C670        H672   1.086       .  S
C673        C674   1.346   1_556  D
C673        H675   1.086       .  S
C674       H2116   1.086   1_455  S
H676       C2114   1.086       .  S
C677       C2074   1.496       .  S
C677        C678   1.345   1_556  D
C677        H679   1.086       .  S
C678        H680   1.085       .  S
C681        C682   1.345   1_556  D
C681        H683   1.087       .  S
C682        H684   1.086       .  S
C685        C686   1.336   1_554  D
C685        H687   1.085       .  S
C686        H688   1.086       .  S
C689        C690   1.343   1_545  D
C689        H691   1.087       .  S
C690        H692   1.087   1_556  S
C693        C694   1.349   1_554  D
C693        H695   1.086       .  S
C694       C1353   1.485       .  S
C694        H696   1.086       .  S
C697        C698   1.345       .  D
C697        H699   1.086       .  S
C698        H700   1.087       .  S
C701        C702   1.341       .  D
C701        H703   1.087       .  S
C702        H704   1.087       .  S
C705        C706   1.340       .  D
C705        H707   1.086       .  S
C706        H708   1.086       .  S
C709        C710   1.343       .  D
C709        H711   1.087       .  S
C710        H712   1.086       .  S
C713        C714   1.348       .  D
C713        H715   1.086       .  S
C714        H716   1.087       .  S
C717        C718   1.348       .  D
C717        H719   1.086       .  S
C718        H720   1.087       .  S
O721       Mg723   2.161       .  S
O721       Mg729   2.129       .  S
O721        C756   1.235       .  S
C722        O735   1.233       .  S
C722        O759   1.268       .  A
C722        H761   1.081       .  S
Mg723       O752   2.170       .  S
Mg723       O767   2.288       .  S
Mg723       O763   2.241       .  S
Mg723       O734   2.292       .  S
O724       Mg766   2.158       .  S
O724       Mg749   2.192       .  S
O724        C745   1.240       .  S
O725        C756   1.272       .  A
O725       Mg749   2.320       .  S
C726        O728   1.275       .  A
C726        O740   1.271       .  A
C726       C1287   1.485       .  S
O727        C755   1.274       .  A
O727       Mg729   2.314       .  S
O728       Mg760   2.310       .  S
Mg729       O735   2.184       .  S
Mg729       O743   2.322       .  S
Mg729       O731   2.294       .  S
C730        O768   1.266       .  A
C730        O736   1.267       .  A
C730       C1438   1.474       .  S
O731        C738   1.273       .  A
H732        C745   1.081       .  S
C733        O747   1.234       .  S
C733        O748   1.272       .  A
C733        H758   1.081   1_455  S
O734        C757   1.268       .  A
O735       Mg749   2.170       .  S
O736      Mg2206   2.288       .  S
C737        O750   1.268       .  A
C737       O2182   1.284       .  A
C737        C791   1.492       .  S
C738        O765   1.278       .  A
C738        C769   1.484       .  S
Mg739       O746   2.155       .  S
Mg739       O747   2.118       .  S
Mg739       O740   2.300       .  S
Mg739       O741   2.344       .  S
Mg739      O2208   2.270   1_455  S
O741        C745   1.279       .  A
O742       C2177   1.283   1_455  A
O742       Mg749   2.391       .  S
O743        C762   1.275       .  A
O744        C764   1.278       .  A
O744       Mg760   2.345       .  S
O746       Mg760   2.173       .  S
O746        C757   1.234       .  S
O747       Mg766   2.169       .  S
O748       Mg760   2.322       .  S
Mg749       O765   2.321       .  S
O750      Mg2206   2.237       .  S
H751        C756   1.081       .  S
O752       Mg760   2.169       .  S
O752        C755   1.238       .  S
H753        C755   1.081       .  S
H754        C757   1.081       .  S
O759       Mg766   2.302       .  S
C762        O767   1.269       .  A
C762       C1433   1.482       .  S
O763        C764   1.269       .  A
C764       C1307   1.487       .  S
Mg766      O2176   2.290   1_455  S
Mg766      O2190   2.238   1_455  S
O768      Mg2179   2.269       .  S
C769        C770   1.404       .  A
C769        C774   1.412       .  A
C770        H789   1.086       .  S
C770        C771   1.403       .  A
C771        C772   1.405       .  A
C772        C773   1.418       .  A
C772        C779   1.408       .  A
C773        C774   1.424       .  A
C773        C778   1.413       .  A
C774        C775   1.405       .  A
C775        H785   1.083       .  S
C775        C776   1.394       .  A
C776        H786   1.083       .  S
C776        C777   1.405       .  A
C777        C778   1.415       .  A
C777        C784   1.407       .  A
C778        C781   1.421       .  A
C779        C780   1.391       .  A
C780        H788   1.083       .  S
C780        C781   1.401       .  A
C781        C782   1.408       .  A
C782        C948   1.453       .  S
C782        C783   1.383       .  A
C783        H790   1.088       .  S
C783        C784   1.382       .  A
C784       C1022   1.445       .  S
C791        C792   1.403       .  A
C791        C796   1.434       .  A
C792        H811   1.087       .  S
C792        C793   1.394       .  A
C793        C794   1.401       .  A
C794        C795   1.424       .  A
C794        C801   1.401       .  A
C795        C796   1.426       .  A
C795        C800   1.424       .  A
C796        C797   1.412       .  A
C797       H2247   1.083       .  S
C797        C798   1.415       .  A
C798        H808   1.083       .  S
C798        C799   1.410       .  A
C799        C800   1.430       .  A
C799        C806   1.438       .  A
C800        C803   1.421       .  A
C801        C802   1.383       .  A
C802        H810   1.083       .  S
C802        C803   1.402       .  A
C803        C804   1.397       .  A
C804        C947   1.466       .  S
C804        C805   1.391       .  A
C805        H812   1.087       .  S
C805        C806   1.399       .  A
C806       C1043   1.497       .  S
H807       C2237   1.083       .  S
O813       Mg815   2.142       .  S
O813       Mg821   2.103       .  S
O813        C848   1.236       .  S
C814        O827   1.231       .  S
C814        O851   1.266       .  A
C814        H853   1.081       .  S
Mg815       O844   2.138       .  S
Mg815      O2299   2.274   1_455  S
Mg815      O2295   2.200   1_455  S
Mg815       O826   2.304       .  S
O816       Mg858   2.173       .  S
O816       Mg841   2.160       .  S
O816        C837   1.236       .  S
O817        C848   1.273       .  A
O817       Mg841   2.322       .  S
C818        O820   1.267   1_545  A
O819        C847   1.277       .  A
O819       Mg821   2.337       .  S
O820       Mg852   2.273       .  S
Mg821       O827   2.160       .  S
Mg821      O2275   2.286   1_455  S
Mg821       O823   2.264       .  S
C822        O860   1.262       .  A
C822        O828   1.272       .  A
C822       C1425   1.464       .  S
O823        C830   1.266       .  A
H824        C837   1.081       .  S
C825        O839   1.235       .  S
C825        O840   1.270       .  A
C825        H850   1.081       .  S
O826        C849   1.268       .  A
O827       Mg841   2.167       .  S
C829        O842   1.269       .  A
C829        O834   1.276       .  A
C829       C1331   1.466       .  S
C830        O857   1.270       .  A
C830       C1285   1.469       .  S
Mg831       O838   2.127       .  S
Mg831       O839   2.141       .  S
Mg831       O833   2.301       .  S
O833        C837   1.270       .  A
O834       Mg841   2.322       .  S
O835        C854   1.268       .  A
O835      Mg2261   2.285       .  S
O836       C2296   1.266   1_455  A
O836       Mg852   2.267       .  S
O838       Mg852   2.152       .  S
O838        C849   1.233       .  S
O839       Mg858   2.143       .  S
O840       Mg852   2.309       .  S
Mg841       O857   2.278       .  S
O842       Mg858   2.232       .  S
H843        C848   1.081   1_655  S
O844       Mg852   2.158       .  S
O844        C847   1.238       .  S
H845        C847   1.081       .  S
H846        C849   1.081       .  S
O851       Mg858   2.299       .  S
C854        O859   1.262       .  A
C854       C1430   1.474       .  S
O855        C856   1.261       .  A
O855      Mg2255   2.194       .  S
C856       O2276   1.266       .  A
C856        C909   1.442       .  S
O859      Mg2255   2.275       .  S
O861       Mg863   2.165       .  S
O861       Mg869   2.177       .  S
O861        C896   1.236       .  S
C862        O875   1.237       .  S
C862        O899   1.273       .  A
C862        H901   1.081       .  S
Mg863       O892   2.144       .  S
Mg863       O907   2.263       .  S
Mg863       O903   2.292       .  S
Mg863       O874   2.313       .  S
O864       Mg906   2.141       .  S
O864       Mg889   2.159       .  S
O864        C885   1.234       .  S
O865        C896   1.271       .  A
O865       Mg889   2.307       .  S
C866        O868   1.267       .  A
C866        O880   1.272       .  A
C866       C1329   1.454       .  S
O867        C895   1.269       .  A
O867       Mg869   2.300       .  S
O868       Mg900   2.244       .  S
Mg869       O875   2.147       .  S
Mg869       O883   2.288       .  S
Mg869       O871   2.300       .  S
C870        O908   1.274       .  A
C870        O876   1.270       .  A
C870       C1418   1.476       .  S
O871        C878   1.276       .  A
H872        C885   1.081   1_545  S
C873        O887   1.237       .  S
C873        O888   1.273       .  A
C873        H898   1.081       .  S
O874        C897   1.273       .  A
O875       Mg889   2.148       .  S
C877        O882   1.265       .  A
C878        O905   1.266       .  A
C878        C911   1.462       .  S
Mg879       O886   2.152       .  S
Mg879       O887   2.171       .  S
Mg879       O880   2.270       .  S
Mg879       O881   2.309   1_565  S
O881        C885   1.270   1_545  A
O882       Mg889   2.263       .  S
O883        C902   1.274       .  A
O884        C904   1.269       .  A
O884       Mg900   2.286       .  S
O886       Mg900   2.159       .  S
O886        C897   1.237       .  S
O887       Mg906   2.155       .  S
O888       Mg900   2.313       .  S
Mg889       O905   2.250       .  S
H891        C896   1.081       .  S
O892       Mg900   2.142       .  S
O892        C895   1.235       .  S
H893        C895   1.081       .  S
H894        C897   1.081       .  S
O899       Mg906   2.319       .  S
C902        O907   1.267       .  A
C902       C1421   1.465       .  S
O903        C904   1.268       .  A
C904       C1309   1.482       .  S
C909        C910   1.383       .  A
C909        C914   1.405       .  A
C910        H929   1.089       .  S
C910        C911   1.381       .  A
C911        C912   1.416       .  A
C912        C913   1.425       .  A
C912        C919   1.401       .  A
C913        C914   1.414       .  A
C913        C918   1.417       .  A
C914        C915   1.405       .  A
C915       H2365   1.083       .  S
C915        C916   1.393       .  A
C916        H926   1.083       .  S
C916        C917   1.404       .  A
C917        C918   1.428       .  A
C917        C924   1.415       .  A
C918        C921   1.417       .  A
C919        H927   1.083       .  S
C919        C920   1.397       .  A
C920        H928   1.082       .  S
C920        C921   1.411       .  A
C921        C922   1.409       .  A
C922        C984   1.477       .  S
C922        C923   1.408       .  A
C923        H930   1.085       .  S
C923        C924   1.406       .  A
C924       C1044   1.495       .  S
H925       C2355   1.083   1_455  S
O931       Mg933   2.130   1_554  S
O931        C966   1.237       .  S
C932        O945   1.236       .  S
C932        O969   1.273       .  A
C932        H971   1.081       .  S
Mg933       O944   2.307       .  S
O934       Mg959   2.156       .  S
O934        C955   1.233       .  S
O935        C966   1.271       .  A
O935       Mg959   2.302       .  S
C936        O938   1.266       .  A
C936        O950   1.268       .  A
C936       C1263   1.453       .  S
O937        C965   1.265   1_554  A
O937       Mg939   2.287       .  S
O938       Mg970   2.251       .  S
Mg939       O945   2.142       .  S
Mg939       O953   2.286       .  S
C940        O978   1.269       .  A
C940        O946   1.275   1_556  A
C940       C1409   1.471       .  S
O941        C948   1.269       .  A
H942        C955   1.081       .  S
C943        O957   1.238       .  S
C943        O958   1.272       .  A
C943        H968   1.081       .  S
O944        C967   1.270       .  A
C947        O960   1.267       .  A
C947        O952   1.265       .  A
C948        O975   1.267       .  A
Mg949       O956   2.116       .  S
Mg949       O951   2.291       .  S
Mg949       O978   2.251       .  S
O951        C955   1.266   1_556  A
O952       Mg959   2.259       .  S
O953        C972   1.273       .  A
O954        C974   1.263       .  A
O954       Mg970   2.242       .  S
O956        C967   1.235       .  S
O957       Mg976   2.130   1_556  S
O958       Mg970   2.302       .  S
Mg959       O975   2.254       .  S
H961        C966   1.081       .  S
O962       Mg970   2.146       .  S
O962        C965   1.232       .  S
H963        C965   1.081       .  S
H964        C967   1.081       .  S
O969       Mg976   2.318       .  S
C972        O977   1.271   1_554  A
C972       C1413   1.478       .  S
O973        C974   1.265       .  A
C974       C1145   1.461       .  S
O979       Mg981   2.143   1_556  S
O979       Mg987   2.114       .  S
O979       C1014   1.233       .  S
C980        O993   1.232       .  S
C980       O1017   1.268       .  A
C980       H1019   1.081       .  S
Mg981      O1010   2.148       .  S
Mg981      O1025   2.273       .  S
Mg981      O1021   2.212       .  S
Mg981       O992   2.302       .  S
O982      Mg1024   2.175       .  S
O982      Mg1007   2.183       .  S
O982       C1003   1.235       .  S
O983       C1014   1.268       .  A
O983      Mg1007   2.304       .  S
C984        O986   1.266       .  A
C984        O998   1.267       .  A
O985       C1013   1.275       .  A
O985       Mg987   2.330   1_554  S
O986      Mg1018   2.273       .  S
Mg987       O993   2.153       .  S
Mg987      O1001   2.281       .  S
Mg987       O989   2.300       .  S
C988       O1026   1.262   1_556  A
C988        O994   1.274       .  A
C988       C1405   1.469   1_556  S
O989        C996   1.274       .  A
H990       C1003   1.081       .  S
C991       O1005   1.233       .  S
C991       O1006   1.269       .  A
C991       H1016   1.081       .  S
O992       C1015   1.269       .  A
O993      Mg1007   2.170       .  S
O994      Mg1024   2.319       .  S
C995       O1008   1.269       .  A
C995       O1000   1.269       .  A
C995       C1265   1.456       .  S
C996       O1023   1.272       .  A
C996       C1125   1.481       .  S
Mg997      O1004   2.133       .  S
Mg997      O1005   2.139       .  S
Mg997       O998   2.278       .  S
Mg997       O999   2.314   1_554  S
Mg997      O1026   2.206       .  S
O999       C1003   1.272       .  A
O1000     Mg1007   2.273       .  S
O1001      C1020   1.270   1_556  A
O1002      C1022   1.264       .  A
O1002     Mg1018   2.248       .  S
O1004     Mg1018   2.161       .  S
O1004      C1015   1.235       .  S
O1005     Mg1024   2.151   1_554  S
O1006     Mg1018   2.309       .  S
Mg1007     O1023   2.286       .  S
O1008     Mg1024   2.235       .  S
H1009      C1014   1.081       .  S
O1010     Mg1018   2.158       .  S
O1010      C1013   1.237       .  S
H1011      C1013   1.081       .  S
H1012      C1015   1.081       .  S
O1017     Mg1024   2.300       .  S
C1020      O1025   1.263       .  A
C1020      C1402   1.470       .  S
O1021      C1022   1.263       .  A
O1027     Mg1029   2.192   1_554  S
O1027     Mg2475   2.133   1_455  S
O1027      C1062   1.237       .  S
C1028      O1041   1.229       .  S
C1028      O1065   1.264       .  A
C1028      H1067   1.081       .  S
Mg1029     O2498   2.182   1_455  S
Mg1029     O1073   2.291       .  S
Mg1029     O1069   2.262       .  S
Mg1029     O1040   2.287       .  S
O1030     Mg2512   2.189   1_455  S
O1030     Mg2495   2.199   1_455  S
O1030      C1051   1.241       .  S
O1031      C1062   1.276       .  A
O1031     Mg2495   2.336   1_455  S
C1032      O1034   1.276       .  A
C1032      O1046   1.265       .  A
C1032      C1123   1.486       .  S
O1033      C1061   1.275       .  A
O1033     Mg1035   2.315   1_556  S
O1034     Mg1066   2.338       .  S
Mg1035     O2467   2.134       .  S
Mg1035     O1041   2.173       .  S
Mg1035     O1049   2.264       .  S
Mg1035     O1037   2.285       .  S
C1036      O1074   1.264       .  A
C1036      O2482   1.273   1_556  A
C1036      C1393   1.477       .  S
O1037      C1044   1.269       .  A
H1038      C1051   1.081       .  S
C1039      O1053   1.237       .  S
C1039      O1054   1.276       .  A
C1039      H1064   1.081       .  S
O1040      C1063   1.263       .  A
O1041     Mg1055   2.162       .  S
O1042      C2476   1.273   1_554  A
O1042     Mg1072   2.312       .  S
C1043      O1056   1.274       .  A
C1043      O1048   1.286       .  A
C1044      O1071   1.280       .  A
Mg1045     O1052   2.152       .  S
Mg1045     O2493   2.134   1_455  S
Mg1045     O1046   2.272       .  S
Mg1045     O1047   2.322   1_556  S
Mg1045     O1074   2.231       .  S
O1047      C1051   1.277       .  A
O1048     Mg1055   2.400       .  S
O1049      C1068   1.269       .  A
O1050      C1070   1.283       .  A
O1050     Mg1066   2.388       .  S
O1052     Mg1066   2.163       .  S
O1052      C1063   1.230       .  S
O1053     Mg2485   2.135       .  S
O1053     Mg1072   2.181   1_556  S
O1054     Mg2506   2.339       .  S
Mg1055     O2470   2.200       .  S
Mg1055     O2471   2.338       .  S
Mg1055     O1071   2.358       .  S
O1056     Mg1072   2.264       .  S
H1057      C1062   1.081       .  S
O1058     Mg2469   2.183       .  S
O1058     Mg2506   2.178       .  S
O1058      C1061   1.239       .  S
H1059      C1061   1.081       .  S
H1060      C1063   1.081       .  S
O1065     Mg1072   2.296       .  S
Mg1066     O2498   2.179   1_455  S
Mg1066     O2494   2.339   1_455  S
C1068      O2513   1.269   1_554  A
C1068      C1398   1.476       .  S
O1069      C1070   1.274       .  A
C1070      C1147   1.497       .  S
Mg1072     O2470   2.190       .  S
O1073      C2508   1.270   1_455  A
O1075     Mg1077   2.151       .  S
O1075     Mg1083   2.163       .  S
O1075      C1110   1.236       .  S
C1076      O1089   1.237       .  S
C1076      O1113   1.272       .  A
C1076      H1115   1.081       .  S
Mg1077     O1106   2.145       .  S
Mg1077     O1117   2.245       .  S
Mg1077     O1088   2.313       .  S
O1078     Mg1120   2.154       .  S
O1078     Mg1103   2.138       .  S
O1078      C1099   1.236       .  S
O1079      C1110   1.272       .  A
O1079     Mg1103   2.313       .  S
C1080      O1082   1.267       .  A
C1080      O1094   1.277       .  A
C1080      C1136   1.459       .  S
O1081      C1109   1.271       .  A
O1081     Mg1083   2.315       .  S
O1082     Mg1114   2.248       .  S
Mg1083     O1089   2.141       .  S
Mg1083     O1085   2.273       .  S
C1084      O1122   1.274       .  A
C1084      O1090   1.263       .  A
C1084      C1385   1.461       .  S
O1085      C1092   1.273       .  A
H1086      C1099   1.080       .  S
C1087      O1101   1.234       .  S
C1087      O1102   1.269       .  A
C1087      H1112   1.081       .  S
O1088      C1111   1.273       .  A
O1089     Mg1103   2.162       .  S
O1090     Mg1120   2.230       .  S
C1091      O1104   1.266       .  A
C1091      O1096   1.270       .  A
C1091      C1322   1.482       .  S
C1092      O1119   1.268       .  A
C1092      C1342   1.454       .  S
Mg1093     O1100   2.136       .  S
Mg1093     O1101   2.180       .  S
Mg1093     O1094   2.298       .  S
Mg1093     O1095   2.293       .  S
Mg1093     O1122   2.294       .  S
O1095      C1099   1.269       .  A
O1096     Mg1103   2.285       .  S
O1097      C1116   1.273       .  A
O1098      C1118   1.265       .  A
O1098     Mg1114   2.251       .  S
O1100     Mg1114   2.149       .  S
O1100      C1111   1.237       .  S
O1101     Mg1120   2.159       .  S
O1102     Mg1114   2.302       .  S
Mg1103     O1119   2.248       .  S
O1104     Mg1120   2.283       .  S
H1105      C1110   1.081       .  S
O1106     Mg1114   2.156       .  S
O1106      C1109   1.235       .  S
H1107      C1109   1.081       .  S
H1108      C1111   1.081       .  S
O1113     Mg1120   2.306       .  S
C1116      O1121   1.264       .  A
C1116      C1389   1.473       .  S
O1117      C1118   1.262       .  A
C1123      C1124   1.403       .  A
C1123      C1128   1.412       .  A
C1124      H1143   1.086       .  S
C1124      C1125   1.405       .  A
C1125      C1126   1.412       .  A
C1126      C1127   1.421       .  A
C1126      C1133   1.408       .  A
C1127      C1128   1.425       .  A
C1127      C1132   1.417       .  A
C1128      C1129   1.405       .  A
C1129      H1139   1.083       .  S
C1129      C1130   1.393       .  A
C1130      H2580   1.083   1_455  S
C1130      C1131   1.404       .  A
C1131      C1132   1.418       .  A
C1131      C1138   1.408       .  A
C1132      C1135   1.423       .  A
C1133      H1141   1.083       .  S
C1133      C1134   1.398       .  A
C1134      H1142   1.083       .  S
C1134      C1135   1.403       .  A
C1135      C1136   1.414       .  A
C1136      C1137   1.382       .  A
C1137      H1144   1.089       .  S
C1137      C1138   1.381       .  A
C1138      C1183   1.446       .  S
H1140      C2570   1.083       .  S
C1145      C1146   1.389       .  A
C1145      C1150   1.394       .  A
C1146      H1165   1.087       .  S
C1146      C1147   1.400       .  A
C1147      C1148   1.439       .  A
C1148      C1149   1.430       .  A
C1148      C1155   1.411       .  A
C1149      C1150   1.420       .  A
C1149      C1154   1.423       .  A
C1150      C1151   1.401       .  A
C1151      H1161   1.083   1_565  S
C1151      C1152   1.378       .  A
C1152      C1153   1.400       .  A
C1153      C1154   1.424       .  A
C1153      C1160   1.397       .  A
C1154      C1157   1.426       .  A
C1155      H1163   1.083       .  S
C1155      C1156   1.416       .  A
C1156      H2604   1.083       .  S
C1156      C1157   1.413       .  A
C1157      C1158   1.436       .  A
C1158      C1258   1.494       .  S
C1158      C1159   1.403       .  A
C1159      H1166   1.086       .  S
C1159      C1160   1.394       .  A
H1164      C2596   1.083       .  S
O1167     Mg1169   2.157       .  S
O1167     Mg1175   2.147       .  S
O1167      C1202   1.234       .  S
C1168      O1181   1.234       .  S
C1168      O1205   1.270       .  A
C1168      H1207   1.081       .  S
Mg1169     O1198   2.176       .  S
Mg1169     O1209   2.243       .  S
Mg1169     O1180   2.297       .  S
O1170     Mg1212   2.142       .  S
O1170     Mg1195   2.173       .  S
O1170      C1191   1.237       .  S
O1171      C1202   1.269       .  A
O1171     Mg1195   2.305       .  S
C1172      O1174   1.270       .  A
C1172      O1186   1.272       .  A
C1172      C1298   1.474       .  S
O1173      C1201   1.269       .  A
O1173     Mg1175   2.300       .  S
O1174     Mg1206   2.267       .  S
Mg1175     O1181   2.144       .  S
C1176      O1214   1.271       .  A
C1176      O1182   1.265       .  A
C1176      C1381   1.481       .  S
H1178      C1191   1.081       .  S
C1179      O1193   1.235       .  S
C1179      O1194   1.272       .  A
C1179      H1204   1.081       .  S
O1180      C1203   1.267       .  A
O1181     Mg1195   2.158       .  S
O1182     Mg2652   2.292   1_455  S
C1183      O1196   1.262       .  A
C1183      O2628   1.267   1_455  A
C1184      O1211   1.270       .  A
Mg1185     O1192   2.166       .  S
Mg1185     O1193   2.112       .  S
Mg1185     O1186   2.285       .  S
Mg1185     O1187   2.334       .  S
Mg1185     O2654   2.305       .  S
O1187      C1191   1.276       .  A
O1188      C2623   1.267       .  A
O1188     Mg1195   2.271       .  S
O1189      C1208   1.266       .  A
O1190      C1210   1.274       .  A
O1190     Mg1206   2.311       .  S
O1192     Mg1206   2.171       .  S
O1192      C1203   1.232       .  S
O1193     Mg1212   2.148       .  S
O1194     Mg1206   2.318       .  S
Mg1195     O1211   2.284       .  S
O1196     Mg2652   2.205   1_455  S
H1197      C1202   1.081       .  S
O1198     Mg1206   2.165       .  S
O1198      C1201   1.235       .  S
H1199      C1201   1.081       .  S
H1200      C1203   1.081       .  S
O1205     Mg1212   2.310       .  S
C1208      O1213   1.272       .  A
C1208      C1377   1.469       .  S
O1209      C1210   1.270       .  A
C1210      C1344   1.468       .  S
Mg1212     O2622   2.294       .  S
Mg1212     O2636   2.208       .  S
O1214     Mg2625   2.304   1_455  S
O1215     Mg1217   2.171       .  S
O1215     Mg1223   2.138       .  S
O1215      C1250   1.236       .  S
C1216      O1229   1.230       .  S
C1216      O1253   1.263       .  A
C1216      H1255   1.081       .  S
Mg1217     O1246   2.189       .  S
Mg1217     O2701   2.310       .  S
Mg1217     O2697   2.267       .  S
Mg1217     O1228   2.297       .  S
O1218     Mg1260   2.185       .  S
O1218     Mg1243   2.180       .  S
O1218      C1239   1.240       .  S
O1219      C1250   1.274       .  A
O1219     Mg1243   2.328       .  S
C1220      O1222   1.276       .  A
C1220      O1234   1.268       .  A
C1220      C1276   1.490       .  S
O1221      C1249   1.276       .  A
O1221     Mg1223   2.316       .  S
O1222     Mg1254   2.344       .  S
Mg1223     O1229   2.136       .  S
Mg1223     O2677   2.204       .  S
Mg1223     O1225   2.272       .  S
C1224      O1262   1.267       .  A
C1224      O1230   1.272       .  A
C1224      C1373   1.475       .  S
O1225      C1232   1.265       .  A
H1226      C1239   1.081       .  S
C1227      O1241   1.237       .  S
C1227      O1242   1.276       .  A
C1227      H1252   1.081       .  S
O1228      C1251   1.265       .  A
O1229     Mg1243   2.151       .  S
O1230     Mg1260   2.305       .  S
C1231      O1244   1.275       .  A
C1231      O1236   1.279       .  A
C1231      C1320   1.489       .  S
C1232      O1259   1.275       .  A
C1232      C1300   1.489       .  S
Mg1233     O1240   2.172       .  S
Mg1233     O1241   2.130       .  S
Mg1233     O1234   2.281       .  S
Mg1233     O1235   2.322       .  S
Mg1233     O1262   2.257       .  S
O1235      C1239   1.276       .  A
O1236     Mg1243   2.339       .  S
O1237      C1256   1.260       .  A
O1237     Mg2663   2.204   1_455  S
O1238      C2698   1.284       .  A
O1238     Mg1254   2.382       .  S
O1240     Mg1254   2.164       .  S
O1240      C1251   1.230       .  S
O1241     Mg1260   2.186       .  S
O1242     Mg1254   2.339       .  S
Mg1243     O1259   2.341       .  S
O1244     Mg1260   2.270       .  S
H1245      C1250   1.081       .  S
O1246     Mg1254   2.188       .  S
O1246      C1249   1.240       .  S
H1247      C1249   1.081       .  S
H1248      C1251   1.081       .  S
O1253     Mg1260   2.286       .  S
C1256      O1261   1.275       .  A
C1256      C1369   1.470       .  S
O1257      C1258   1.275       .  A
O1257     Mg2657   2.269       .  S
C1258      O2678   1.284   1_455  A
O1261     Mg2657   2.311       .  S
C1263      C1264   1.383       .  A
C1263      C1268   1.408       .  A
C1264      H1283   1.088       .  S
C1264      C1265   1.383       .  A
C1265      C1266   1.414       .  A
C1266      C1267   1.419       .  A
C1266      C1273   1.405       .  A
C1267      C1268   1.420       .  A
C1267      C1272   1.417       .  A
C1268      C1269   1.401       .  A
C1269      H1279   1.083       .  S
C1269      C1270   1.392       .  A
C1270      C1271   1.407       .  A
C1271      C1272   1.421       .  A
C1271      C1278   1.408       .  A
C1272      C1275   1.424       .  A
C1273      H1281   1.083       .  S
C1273      C1274   1.398       .  A
C1274      H1282   1.083       .  S
C1274      C1275   1.407       .  A
C1275      C1276   1.416       .  A
C1276      C1277   1.407       .  A
C1277      H1284   1.085       .  S
C1277      C1278   1.407       .  A
C1285      C1286   1.399       .  A
C1285      C1290   1.405       .  A
C1286      H1305   1.086       .  S
C1286      C1287   1.400       .  A
C1287      C1288   1.415       .  A
C1288      C1289   1.427       .  A
C1288      C1295   1.402       .  A
C1289      C1290   1.418       .  A
C1289      C2734   1.418   1_455  A
C1290      C1291   1.406   1_455  A
C1291      H1301   1.083   1_655  S
C1291      C2732   1.391       .  A
C1292      H1302   1.083       .  S
C1292      C2731   1.392       .  A
C1292      C1293   1.403       .  A
C1293      C1294   1.427       .  A
C1293      C1300   1.413       .  A
C1294      C2729   1.418       .  A
C1294      C1297   1.418       .  A
C1295      H1303   1.083       .  S
C1295      C2736   1.394   1_455  A
C1296      H1304   1.082       .  S
C1296      C2735   1.394       .  A
C1296      C1297   1.408       .  A
C1297      C1298   1.408       .  A
C1298      C1299   1.404       .  A
C1299      H1306   1.086       .  S
C1299      C1300   1.402       .  A
C1307      C1308   1.397       .  A
C1307      C1312   1.423       .  A
C1308      H1327   1.085       .  S
C1308      C1309   1.398       .  A
C1309      C1310   1.417       .  A
C1310      C1311   1.425       .  A
C1310      C1317   1.404       .  A
C1311      C1312   1.426       .  A
C1311      C1316   1.428       .  A
C1312      C1313   1.408       .  A
C1313      H1323   1.081       .  S
C1313      C1314   1.398       .  A
C1314      H1324   1.083       .  S
C1314      C1315   1.404       .  A
C1315      C1316   1.425       .  A
C1315      C1322   1.417       .  A
C1316      C1319   1.426       .  A
C1317      H1325   1.083       .  S
C1317      C1318   1.398       .  A
C1318      H1326   1.081       .  S
C1318      C1319   1.409       .  A
C1319      C1320   1.424       .  A
C1320      C1321   1.396       .  A
C1321      H1328   1.082       .  S
C1321      C1322   1.398       .  A
C1329      C1330   1.386       .  A
C1329      C1334   1.410       .  A
C1330      H1349   1.088       .  S
C1330      C1331   1.385       .  A
C1331      C1332   1.417       .  A
C1332      C1333   1.425       .  A
C1332      C1339   1.404       .  A
C1333      C1334   1.417       .  A
C1334      C1335   1.407       .  A
C1335      H1345   1.083       .  S
C1336      H1346   1.083       .  S
C1336      C1337   1.405       .  A
C1337      C1338   1.424       .  A
C1337      C1344   1.418       .  A
C1338      C1341   1.417       .  A
C1339      H1347   1.083       .  S
C1340      H1348   1.083       .  S
C1340      C1341   1.407       .  A
C1341      C1342   1.410       .  A
C1342      C1343   1.387       .  A
C1343      H1350   1.088       .  S
C1343      C1344   1.385       .  A
C1351      C1394   1.503   1_556  S
C1351      C1352   1.423       .  A
C1351      C2796   1.417   1_455  A
C1352      C1401   1.489       .  S
C1352      C1353   1.420       .  A
C1354      C2837   1.499       .  S
C1354      C2795   1.416   1_455  A
C1355      C1406   1.489       .  S
C1355      C2794   1.415       .  A
C1356      C1410   1.484       .  S
C1356      C2791   1.417       .  A
C1357      C1417   1.499       .  S
C1357      C1358   1.419       .  A
C1357      C1362   1.425       .  A
C1358      C1437   1.492       .  S
C1358      C1359   1.412       .  A
C1359      C1429   1.490       .  S
C1359      C1360   1.414       .  A
C1360      C1422   1.492       .  S
C1360      C1361   1.421       .  A
C1361      C1434   1.507       .  S
C1361      C1362   1.430       .  A
C1362      C1426   1.496       .  S
C1363      C1390   1.493       .  S
C1363      C1364   1.417       .  A
C1363      C1368   1.425       .  A
C1364      C1378   1.501       .  S
C1364      C1365   1.418       .  A
C1365      C1374   1.493       .  S
C1365      C1366   1.420       .  A
C1366      C1386   1.488       .  S
C1366      C1367   1.414       .  A
C1367      C1382   1.501       .  S
C1367      C1368   1.418       .  A
C1368      C1370   1.489       .  S
C1369      C1370   1.337       .  D
C1369      H1371   1.088       .  S
C1370      H1372   1.084       .  S
C1373      C1374   1.341       .  D
C1373      H1375   1.087       .  S
C1374      H1376   1.086       .  S
C1377      C1378   1.344       .  D
C1377      H1379   1.083       .  S
C1378      H1380   1.086       .  S
C1381      C1382   1.348       .  D
C1381      H1383   1.086       .  S
C1382      H1384   1.087       .  S
C1385      C1386   1.335       .  D
C1385      H1387   1.086       .  S
C1386      H1388   1.087       .  S
C1389      C1390   1.337       .  D
C1389      H1391   1.086       .  S
C1390      H1392   1.086       .  S
C1393      C1394   1.346   1_556  D
C1393      H1395   1.086       .  S
C1394      H2836   1.086   1_455  S
H1396      C2834   1.086       .  S
C1397      C2794   1.498       .  S
C1397      C1398   1.347   1_556  D
C1397      H1399   1.086       .  S
C1398      H1400   1.083       .  S
C1401      C1402   1.345   1_556  D
C1401      H1403   1.087       .  S
C1402      H1404   1.086       .  S
C1405      C1406   1.334   1_554  D
C1405      H1407   1.088       .  S
C1406      H1408   1.086       .  S
C1409      C1410   1.343       .  D
C1409      H1411   1.087       .  S
C1410      H1412   1.087   1_556  S
C1413      C1414   1.349   1_564  D
C1413      H1415   1.086       .  S
C1414      H1416   1.086       .  S
C1417      C1418   1.345       .  D
C1417      H1419   1.086       .  S
C1418      H1420   1.087       .  S
C1421      C1422   1.341       .  D
C1421      H1423   1.087       .  S
C1422      H1424   1.087       .  S
C1425      C1426   1.340       .  D
C1425      H1427   1.086       .  S
C1426      H1428   1.086       .  S
C1429      C1430   1.344       .  D
C1429      H1431   1.087       .  S
C1430      H1432   1.086       .  S
C1433      C1434   1.348       .  D
C1433      H1435   1.086       .  S
C1434      H1436   1.087       .  S
C1437      C1438   1.348       .  D
C1437      H1439   1.086       .  S
C1438      H1440   1.087       .  S
O1441     Mg1443   2.162       .  S
O1441     Mg1449   2.128       .  S
O1441      C1476   1.236       .  S
C1442      O1455   1.233       .  S
C1442      O1479   1.268       .  A
C1442      H1481   1.081       .  S
Mg1443     O1472   2.170       .  S
Mg1443     O1487   2.290       .  S
Mg1443     O1483   2.241       .  S
Mg1443     O1454   2.293       .  S
O1444     Mg1486   2.158       .  S
O1444     Mg1469   2.189       .  S
O1444      C1465   1.241       .  S
O1445      C1476   1.273       .  A
O1445     Mg1469   2.322       .  S
C1446      O1448   1.274       .  A
C1446      O1460   1.271       .  A
C1446      C2007   1.485       .  S
O1447      C1475   1.274       .  A
O1447     Mg1449   2.314       .  S
O1448     Mg1480   2.310       .  S
Mg1449     O1455   2.185       .  S
Mg1449     O1463   2.325       .  S
Mg1449     O1451   2.292       .  S
C1450      O1488   1.266       .  A
C1450      O1456   1.267       .  A
C1450      C2158   1.474       .  S
O1451      C1458   1.273       .  A
H1452      C1465   1.081       .  S
C1453      O1467   1.234       .  S
C1453      O1468   1.272       .  A
C1453      H1478   1.081       .  S
O1454      C1477   1.268       .  A
O1455     Mg1469   2.170       .  S
C1457      O1470   1.268       .  A
C1457      C1511   1.491       .  S
C1458      O1485   1.278       .  A
C1458      C1489   1.483       .  S
Mg1459     O1466   2.155       .  S
Mg1459     O1467   2.118       .  S
Mg1459     O1460   2.299       .  S
Mg1459     O1461   2.343       .  S
O1461      C1465   1.279       .  A
O1462     Mg1469   2.395       .  S
O1463      C1482   1.275       .  A
O1464      C1484   1.278       .  A
O1464     Mg1480   2.345       .  S
O1466     Mg1480   2.173       .  S
O1466      C1477   1.234       .  S
O1467     Mg1486   2.168       .  S
O1468     Mg1480   2.322       .  S
Mg1469     O1485   2.318       .  S
H1471      C1476   1.081       .  S
O1472     Mg1480   2.169       .  S
O1472      C1475   1.239       .  S
H1473      C1475   1.081       .  S
H1474      C1477   1.081       .  S
O1479     Mg1486   2.302       .  S
C1482      O1487   1.269       .  A
C1482      C2153   1.483       .  S
O1483      C1484   1.269       .  A
C1484      C2027   1.487       .  S
C1489      C1490   1.403       .  A
C1489      C1494   1.411       .  A
C1490      H1509   1.086       .  S
C1490      C1491   1.403       .  A
C1491      C2258   1.471       .  S
C1491      C1492   1.405       .  A
C1492      C1493   1.418       .  A
C1492      C1499   1.408       .  A
C1493      C1494   1.424       .  A
C1493      C1498   1.413       .  A
C1494      C1495   1.405       .  A
C1495      H1505   1.083       .  S
C1495      C1496   1.394       .  A
C1496      H1506   1.083       .  S
C1496      C1497   1.405       .  A
C1497      C1498   1.415       .  A
C1497      C1504   1.406       .  A
C1498      C1501   1.421       .  A
C1499      H2227   1.082   1_545  S
C1499      C1500   1.391       .  A
C1500      H1508   1.083       .  S
C1500      C1501   1.401       .  A
C1501      C1502   1.408       .  A
C1502      C1668   1.453       .  S
C1502      C1503   1.383       .  A
C1503      H1510   1.088       .  S
C1503      C1504   1.383       .  A
C1504      C1742   1.446       .  S
H1507      C2219   1.082       .  S
C1511      C1512   1.402       .  A
C1511      C1516   1.435       .  A
C1512      H1531   1.087       .  S
C1512      C1513   1.393       .  A
C1513      C2317   1.474   1_545  S
C1513      C1514   1.400       .  A
C1514      C1515   1.424       .  A
C1514      C1521   1.400       .  A
C1515      C1516   1.426       .  A
C1515      C1520   1.424       .  A
C1516      C1517   1.412       .  A
C1517      C1518   1.415       .  A
C1518      H1528   1.083       .  S
C1518      C1519   1.410       .  A
C1519      C1520   1.430       .  A
C1519      C1526   1.439       .  A
C1520      C1523   1.421       .  A
C1521      H2249   1.083   1_545  S
C1521      C1522   1.383       .  A
C1522      H1530   1.083   1_545  S
C1522      C1523   1.402       .  A
C1523      C1524   1.397       .  A
C1524      C1667   1.465       .  S
C1524      C1525   1.390       .  A
C1525      H1532   1.087       .  S
C1525      C1526   1.399       .  A
C1526      C1763   1.497       .  S
H1529      C2241   1.083       .  S
O1533     Mg1535   2.137       .  S
O1533     Mg1541   2.102       .  S
O1533      C1568   1.236       .  S
C1534      O1547   1.231       .  S
C1534      O1571   1.266       .  A
C1534      H1573   1.081       .  S
Mg1535     O1564   2.141       .  S
Mg1535     O1546   2.302       .  S
O1536     Mg1578   2.173       .  S
O1536     Mg1561   2.164       .  S
O1536      C1557   1.236       .  S
O1537      C1568   1.272       .  A
O1537     Mg1561   2.318       .  S
C1538      O1540   1.266       .  A
C1538      O2272   1.264       .  A
C1538      C2211   1.471       .  S
O1539      C1567   1.276       .  A
O1539     Mg1541   2.335       .  S
O1540     Mg1572   2.272       .  S
Mg1541     O1547   2.159       .  S
Mg1541     O1543   2.266       .  S
C1542      O1580   1.262       .  A
C1542      O1548   1.272       .  A
C1542      C2145   1.465       .  S
O1543      C1550   1.267       .  A
H1544      C1557   1.081       .  S
C1545      O1559   1.235       .  S
C1545      O1560   1.271       .  A
C1545      H1570   1.081       .  S
O1546      C1569   1.268       .  A
O1547     Mg1561   2.167       .  S
O1548     Mg2298   2.306   1_545  S
C1549      O1562   1.269       .  A
C1549      O1554   1.275       .  A
C1549      C2051   1.465       .  S
C1550      O1577   1.271       .  A
C1550      C2005   1.469       .  S
Mg1551     O1558   2.125       .  S
Mg1551     O1559   2.140       .  S
Mg1551     O2272   2.258       .  S
Mg1551     O1553   2.302       .  S
Mg1551     O2300   2.196       .  S
O1552      C2258   1.264       .  A
O1552     Mg2271   2.258   1_545  S
O1553      C1557   1.270       .  A
O1554     Mg1561   2.319       .  S
O1555      C1574   1.268       .  A
O1556     Mg1572   2.266       .  S
O1558     Mg1572   2.152       .  S
O1558      C1569   1.233       .  S
O1559     Mg1578   2.144       .  S
O1560     Mg1572   2.310       .  S
Mg1561     O1577   2.280       .  S
O1562     Mg1578   2.230       .  S
H1563      C1568   1.081       .  S
O1564     Mg1572   2.156       .  S
O1564      C1567   1.238       .  S
H1565      C1567   1.081       .  S
H1566      C1569   1.081       .  S
O1571     Mg1578   2.299       .  S
C1574      O1579   1.262       .  A
C1574      C2150   1.475       .  S
O1575      C1576   1.261       .  A
C1576      C1629   1.442       .  S
Mg1578     O2268   2.306       .  S
O1580     Mg2271   2.196   1_545  S
O1581     Mg1583   2.166       .  S
O1581     Mg1589   2.179       .  S
O1581      C1616   1.236       .  S
C1582      O1595   1.237       .  S
C1582      O1619   1.273       .  A
C1582      H1621   1.081       .  S
Mg1583     O1612   2.143       .  S
Mg1583     O1627   2.264       .  S
Mg1583     O1623   2.291       .  S
Mg1583     O1594   2.314       .  S
O1584     Mg1626   2.141       .  S
O1584     Mg1609   2.157       .  S
O1584      C1605   1.234       .  S
O1585      C1616   1.271       .  A
O1585     Mg1609   2.308       .  S
C1586      O1588   1.267       .  A
C1586      O1600   1.272       .  A
C1586      C2049   1.454       .  S
O1587      C1615   1.269       .  A
O1587     Mg1589   2.300       .  S
O1588     Mg1620   2.244       .  S
Mg1589     O1595   2.145       .  S
Mg1589     O1603   2.286       .  S
Mg1589     O1591   2.300       .  S
C1590      O1628   1.274       .  A
C1590      O1596   1.270       .  A
C1590      C2138   1.477       .  S
O1591      C1598   1.276       .  A
H1592      C1605   1.081       .  S
C1593      O1607   1.237       .  S
C1593      O1608   1.272       .  A
C1593      H1618   1.081       .  S
O1594      C1617   1.273       .  A
O1595     Mg1609   2.147       .  S
O1596     Mg2346   2.283   1_545  S
C1597      O2330   1.266       .  A
C1597      O1602   1.265       .  A
C1597      C2233   1.474       .  S
C1598      O1625   1.266       .  A
C1598      C1631   1.462       .  S
Mg1599     O1606   2.154       .  S
Mg1599     O1607   2.173       .  S
Mg1599     O1600   2.270       .  S
Mg1599     O1601   2.308       .  S
Mg1599     O2348   2.303       .  S
O1601      C1605   1.269       .  A
O1602     Mg1609   2.264       .  S
O1603      C1622   1.274       .  A
O1604      C1624   1.269       .  A
O1604     Mg1620   2.287       .  S
O1606     Mg1620   2.160       .  S
O1606      C1617   1.237       .  S
O1607     Mg1626   2.153       .  S
O1608     Mg1620   2.311       .  S
Mg1609     O1625   2.246       .  S
O1610      C2317   1.266   1_545  A
O1610     Mg2346   2.261   1_545  S
H1611      C1616   1.081       .  S
O1612     Mg1620   2.142       .  S
O1612      C1615   1.235       .  S
H1613      C1615   1.081       .  S
H1614      C1617   1.081       .  S
O1619     Mg1626   2.318       .  S
C1622      O1627   1.268       .  A
C1622      C2141   1.464       .  S
O1623      C1624   1.268       .  A
C1624      C2029   1.482       .  S
Mg1626     O2316   2.283       .  S
Mg1626     O2330   2.262       .  S
O1628     Mg2319   2.304   1_545  S
C1629      C1630   1.383       .  A
C1629      C1634   1.405       .  A
C1630      H1649   1.089       .  S
C1630      C1631   1.381       .  A
C1631      C1632   1.415       .  A
C1632      C1633   1.425       .  A
C1632      C1639   1.401       .  A
C1633      C1634   1.415       .  A
C1633      C1638   1.417       .  A
C1634      C1635   1.405       .  A
C1635      C1636   1.393       .  A
C1636      H1646   1.083       .  S
C1636      C1637   1.404       .  A
C1637      C1638   1.428       .  A
C1637      C1644   1.414       .  A
C1638      C1641   1.418       .  A
C1639      H1647   1.083       .  S
C1639      C1640   1.396       .  A
C1640      H1648   1.083       .  S
C1640      C1641   1.410       .  A
C1641      C1642   1.409       .  A
C1642      C1704   1.478       .  S
C1642      C1643   1.408       .  A
C1643      H1650   1.085       .  S
C1643      C1644   1.407       .  A
C1644      C1764   1.495       .  S
O1651     Mg1653   2.130   1_554  S
O1651     Mg2379   2.188   1_545  S
O1651      C1686   1.237       .  S
C1652      O1665   1.236       .  S
C1652      O1689   1.272       .  A
C1652      H1691   1.081       .  S
Mg1653     O2402   2.158   1_545  S
Mg1653     O2417   2.273   1_545  S
Mg1653     O2413   2.242   1_545  S
Mg1653     O1664   2.306       .  S
O1654     Mg2416   2.157   1_545  S
O1654     Mg1679   2.157       .  S
O1654      C1675   1.233       .  S
O1655      C1686   1.271       .  A
O1655     Mg1679   2.303       .  S
C1656      O1658   1.267       .  A
C1656      O1670   1.268       .  A
C1656      C1983   1.454       .  S
O1657      C1685   1.265   1_554  A
O1657     Mg1659   2.287       .  S
O1658     Mg1690   2.254       .  S
Mg1659     O2371   2.188       .  S
Mg1659     O1665   2.139       .  S
Mg1659     O1673   2.283       .  S
Mg1659     O2381   2.246       .  S
C1660      O1698   1.269       .  A
C1660      O1666   1.274   1_556  A
C1660      C2129   1.471       .  S
O1661      C1668   1.268       .  A
O1661     Mg2379   2.246   1_545  S
H1662      C1675   1.081       .  S
C1663      O1677   1.238       .  S
C1663      O1678   1.272       .  A
C1663      H1688   1.081       .  S
O1664      C1687   1.270       .  A
O1665     Mg2399   2.148       .  S
O1666     Mg2416   2.298   1_545  S
C1667      O1680   1.267       .  A
C1667      O1672   1.265       .  A
C1668      O1695   1.268       .  A
Mg1669     O1676   2.117       .  S
Mg1669     O2397   2.188   1_545  S
Mg1669     O2390   2.251   1_545  S
Mg1669     O1671   2.291       .  S
Mg1669     O1698   2.253       .  S
O1670     Mg2389   2.250       .  S
O1671      C1675   1.266   1_556  A
O1672     Mg1679   2.259       .  S
O1673      C1692   1.272       .  A
O1674      C1694   1.263       .  A
O1674     Mg1690   2.246       .  S
O1676     Mg2410   2.143   1_545  S
O1676      C1687   1.235       .  S
O1677     Mg2389   2.188       .  S
O1677     Mg1696   2.129   1_556  S
O1678     Mg1690   2.301       .  S
Mg1679     O2385   2.148   1_545  S
Mg1679     O1695   2.257       .  S
O1680     Mg2416   2.251   1_545  S
H1681      C1686   1.081       .  S
O1682     Mg2373   2.158       .  S
O1682     Mg1690   2.148       .  S
O1682      C1685   1.233       .  S
H1683      C1685   1.081       .  S
H1684      C1687   1.081       .  S
O1689     Mg1696   2.316       .  S
Mg1690     O2396   2.142       .  S
C1692      O1697   1.271   1_554  A
C1692      C2133   1.477       .  S
O1693      C1694   1.265       .  A
O1693     Mg2373   2.243       .  S
C1694      C1865   1.461       .  S
Mg1696     O2374   2.157       .  S
Mg1696     O2386   2.298       .  S
Mg1696     O2400   2.251       .  S
O1697     Mg2373   2.275       .  S
O1699     Mg1701   2.144   1_556  S
O1699     Mg1707   2.113       .  S
O1699      C1734   1.233       .  S
C1700      O1713   1.232       .  S
C1700      O1737   1.268       .  A
C1700      H1739   1.081       .  S
Mg1701     O1730   2.152       .  S
Mg1701     O1745   2.272       .  S
Mg1701     O1741   2.212       .  S
Mg1701     O1712   2.298       .  S
O1702     Mg1744   2.176       .  S
O1702     Mg1727   2.184       .  S
O1702      C1723   1.236       .  S
O1703      C1734   1.268       .  A
O1703     Mg1727   2.304       .  S
C1704      O1706   1.267       .  A
C1704      O1718   1.266       .  A
O1705      C1733   1.275       .  A
O1705     Mg1707   2.330   1_554  S
O1706     Mg1738   2.278       .  S
Mg1707     O1713   2.155       .  S
Mg1707     O1721   2.285       .  S
Mg1707     O1709   2.301       .  S
C1708      O1746   1.262   1_556  A
C1708      O1714   1.273       .  A
C1708      C2125   1.469   1_556  S
O1709      C1716   1.274       .  A
H1710      C1723   1.081       .  S
C1711      O1725   1.234       .  S
C1711      O1726   1.270       .  A
C1711      H1736   1.081       .  S
O1712      C1735   1.269       .  A
O1713     Mg1727   2.172       .  S
O1714     Mg1744   2.317       .  S
C1715      O1728   1.269       .  A
C1715      O1720   1.269       .  A
C1715      C1985   1.457       .  S
C1716      O1743   1.272       .  A
C1716      C1845   1.481       .  S
Mg1717     O1724   2.130       .  S
Mg1717     O1725   2.137       .  S
Mg1717     O1718   2.275       .  S
Mg1717     O1719   2.315   1_554  S
Mg1717     O1746   2.206       .  S
O1719      C1723   1.272       .  A
O1720     Mg1727   2.277       .  S
O1721      C1740   1.271   1_556  A
O1722      C1742   1.264       .  A
O1722     Mg1738   2.249       .  S
O1724     Mg1738   2.160       .  S
O1724      C1735   1.234       .  S
O1725     Mg1744   2.152   1_554  S
O1726     Mg1738   2.311       .  S
Mg1727     O1743   2.288       .  S
O1728     Mg1744   2.237       .  S
H1729      C1734   1.081       .  S
O1730     Mg1738   2.159       .  S
O1730      C1733   1.237       .  S
H1731      C1733   1.081       .  S
H1732      C1735   1.081       .  S
O1737     Mg1744   2.300       .  S
C1740      O1745   1.263       .  A
C1740      C2122   1.470       .  S
O1741      C1742   1.264       .  A
O1747     Mg1749   2.195   1_554  S
O1747      C1782   1.237       .  S
C1748      O1761   1.229       .  S
C1748      O1785   1.265       .  A
C1748      H1787   1.081       .  S
Mg1749     O1793   2.292       .  S
Mg1749     O1789   2.263       .  S
Mg1749     O1760   2.288       .  S
O1750      C1771   1.241       .  S
O1751      C1782   1.277       .  A
C1752      O1754   1.276       .  A
C1752      O1766   1.265       .  A
C1752      C1843   1.486       .  S
O1753      C1781   1.275       .  A
O1753     Mg1755   2.316   1_556  S
O1754     Mg1786   2.337       .  S
Mg1755     O1761   2.174       .  S
Mg1755     O1769   2.261       .  S
Mg1755     O1757   2.285       .  S
C1756      O1794   1.264       .  A
C1756      C2113   1.477       .  S
O1757      C1764   1.269       .  A
H1758      C1771   1.081       .  S
C1759      O1773   1.237       .  S
C1759      O1774   1.276       .  A
C1759      H1784   1.081       .  S
O1760      C1783   1.263       .  A
O1761     Mg1775   2.164       .  S
O1762     Mg1792   2.316   1_455  S
C1763      O1776   1.275       .  A
C1763      O1768   1.285       .  A
C1764      O1791   1.280       .  A
Mg1765     O1772   2.153       .  S
Mg1765     O1766   2.272       .  S
Mg1765     O1767   2.322   1_556  S
Mg1765     O1794   2.232       .  S
O1767      C1771   1.277       .  A
O1768     Mg1775   2.395       .  S
O1769      C1788   1.268   1_554  A
O1770      C1790   1.283       .  A
O1770     Mg1786   2.386       .  S
O1772     Mg1786   2.165       .  S
O1772      C1783   1.230       .  S
O1773     Mg1792   2.182   1_556  S
Mg1775     O1791   2.355       .  S
O1776     Mg1792   2.267       .  S
H1777      C1782   1.081       .  S
O1778      C1781   1.239       .  S
H1779      C1781   1.081       .  S
H1780      C1783   1.081       .  S
O1785     Mg1792   2.297       .  S
C1788      C2118   1.476   1_556  S
O1789      C1790   1.274       .  A
C1790      C1867   1.497       .  S
O1795     Mg1797   2.148       .  S
O1795     Mg1803   2.160       .  S
O1795      C1830   1.236       .  S
C1796      O1809   1.237       .  S
C1796      O1833   1.272       .  A
C1796      H1835   1.081       .  S
Mg1797     O1826   2.142       .  S
Mg1797     O2561   2.254   1_545  S
Mg1797     O1837   2.242   1_545  S
Mg1797     O1808   2.313       .  S
O1798     Mg1840   2.151       .  S
O1798     Mg1823   2.142       .  S
O1798      C1819   1.236       .  S
O1799      C1830   1.271       .  A
O1799     Mg1823   2.312       .  S
C1800      O1802   1.267       .  A
C1800      O1814   1.277       .  A
C1800      C1856   1.459       .  S
O1801      C1829   1.271   1_565  A
O1801     Mg1803   2.317   1_565  S
O1802     Mg1834   2.246       .  S
Mg1803     O1809   2.146       .  S
Mg1803     O2537   2.313   1_545  S
Mg1803     O1805   2.274       .  S
C1804      O1842   1.274       .  A
C1804      O1810   1.264       .  A
C1804      C2105   1.463       .  S
O1805      C1812   1.274       .  A
H1806      C1819   1.080       .  S
C1807      O1821   1.234       .  S
C1807      O1822   1.269       .  A
C1807      H1832   1.081       .  S
O1808      C1831   1.273       .  A
O1809     Mg1823   2.164       .  S
O1810     Mg1840   2.237       .  S
C1811      O1824   1.266       .  A
C1811      O1816   1.270       .  A
C1811      C2042   1.482       .  S
C1812      O1839   1.268       .  A
C1812      C2062   1.455       .  S
Mg1813     O1820   2.135       .  S
Mg1813     O1821   2.177       .  S
Mg1813     O1814   2.304       .  S
Mg1813     O1815   2.297       .  S
Mg1813     O1842   2.294       .  S
O1815      C1819   1.269       .  A
O1816     Mg1823   2.286       .  S
O1817      C1836   1.273       .  A
O1817     Mg2523   2.313       .  S
O1818      C1838   1.264       .  A
O1818     Mg1834   2.251       .  S
O1820     Mg1834   2.149       .  S
O1820      C1831   1.237       .  S
O1821     Mg1840   2.157       .  S
O1822     Mg1834   2.302       .  S
Mg1823     O1839   2.250       .  S
O1824     Mg1840   2.279       .  S
H1825      C1830   1.081       .  S
O1826     Mg1834   2.156       .  S
O1826      C1829   1.235       .  S
H1827      C1829   1.081   1_565  S
H1828      C1831   1.081       .  S
O1833     Mg1840   2.309       .  S
C1836      O1841   1.263       .  A
C1836      C2109   1.473       .  S
O1837      C1838   1.262   1_565  A
C1838      C2600   1.472   1_545  S
O1841     Mg2517   2.254       .  S
C1843      C1844   1.403       .  A
C1843      C1848   1.412       .  A
C1844      H1863   1.086       .  S
C1844      C1845   1.405       .  A
C1845      C1846   1.412       .  A
C1846      C1847   1.421       .  A
C1846      C1853   1.409       .  A
C1847      C1848   1.425       .  A
C1847      C1852   1.417       .  A
C1848      C1849   1.405       .  A
C1849      H1859   1.083       .  S
C1849      C1850   1.393       .  A
C1850      C1851   1.404       .  A
C1851      C1852   1.418       .  A
C1851      C1858   1.408       .  A
C1852      C1855   1.423       .  A
C1853      H1861   1.083       .  S
C1853      C1854   1.398       .  A
C1854      H1862   1.083       .  S
C1854      C1855   1.403       .  A
C1855      C1856   1.415       .  A
C1856      C1857   1.382       .  A
C1857      H1864   1.089       .  S
C1857      C1858   1.381       .  A
C1858      C1903   1.447       .  S
C1865      C1866   1.388       .  A
C1865      C1870   1.394       .  A
C1866      H1885   1.087       .  S
C1866      C1867   1.399       .  A
C1867      C1868   1.439       .  A
C1868      C1869   1.430       .  A
C1868      C1875   1.411       .  A
C1869      C1870   1.420       .  A
C1869      C1874   1.423       .  A
C1870      C1871   1.401       .  A
C1871      H1881   1.083       .  S
C1871      C1872   1.379       .  A
C1872      H2602   1.083       .  S
C1872      C1873   1.400       .  A
C1873      C1874   1.424       .  A
C1873      C1880   1.397       .  A
C1874      C1877   1.426       .  A
C1875      H1883   1.083       .  S
C1875      C1876   1.416       .  A
C1876      C1877   1.413       .  A
C1877      C1878   1.437       .  A
C1878      C1978   1.494       .  S
C1878      C1879   1.402       .  A
C1879      H1886   1.086       .  S
C1879      C1880   1.393       .  A
C1880      C2558   1.472       .  S
H1882      C2592   1.083   1_545  S
O1887     Mg1889   2.159       .  S
O1887     Mg1895   2.150       .  S
O1887      C1922   1.234       .  S
C1888      O1901   1.234       .  S
C1888      O1925   1.270       .  A
C1888      H1927   1.081       .  S
Mg1889     O1918   2.177       .  S
Mg1889     O2653   2.308   1_545  S
Mg1889     O1929   2.245       .  S
Mg1889     O1900   2.298       .  S
O1890     Mg1932   2.143       .  S
O1890     Mg1915   2.173       .  S
O1890      C1911   1.237       .  S
O1891      C1922   1.269       .  A
O1891     Mg1915   2.306       .  S
C1892      O1894   1.270       .  A
C1892      O1906   1.272       .  A
C1892      C2018   1.473       .  S
O1893      C1921   1.269       .  A
O1893     Mg1895   2.299       .  S
O1894     Mg1926   2.267       .  S
Mg1895     O1901   2.143       .  S
Mg1895     O2629   2.221   1_545  S
Mg1895     O2617   2.286   1_545  S
C1896      O1934   1.272       .  A
C1896      O1902   1.265       .  A
C1896      C2101   1.482       .  S
O1897      C2624   1.270       .  A
O1897     Mg2615   2.286       .  S
H1898      C1911   1.081       .  S
C1899      O1913   1.235       .  S
C1899      O1914   1.272       .  A
C1899      H1924   1.081   1_655  S
O1900      C1923   1.267       .  A
O1901     Mg1915   2.157       .  S
C1903      O1916   1.262       .  A
C1904      O2617   1.269       .  A
C1904      O1931   1.270   1_565  A
C1904      C2718   1.483       .  S
Mg1905     O1912   2.164       .  S
Mg1905     O1913   2.111       .  S
Mg1905     O1906   2.284       .  S
Mg1905     O1907   2.335       .  S
O1907      C1911   1.276       .  A
O1908     Mg1915   2.270       .  S
O1909      C1928   1.266       .  A
O1909     Mg2615   2.223       .  S
O1910      C1930   1.273       .  A
O1910     Mg1926   2.309       .  S
O1912     Mg1926   2.172       .  S
O1912      C1923   1.232       .  S
O1913     Mg1932   2.146       .  S
O1914     Mg1926   2.317       .  S
Mg1915     O1931   2.284       .  S
H1917      C1922   1.081       .  S
O1918     Mg1926   2.166       .  S
O1918      C1921   1.234       .  S
H1919      C1921   1.081       .  S
H1920      C1923   1.081       .  S
O1925     Mg1932   2.310       .  S
C1928      O1933   1.272       .  A
C1928      C2097   1.470       .  S
O1929      C1930   1.270       .  A
C1930      C2064   1.468       .  S
O1933     Mg2609   2.308       .  S
O1935     Mg1937   2.169   1_655  S
O1935     Mg1943   2.138       .  S
O1935      C1970   1.236       .  S
C1936      O1949   1.230       .  S
C1936      O1973   1.264       .  A
C1936      H1975   1.081       .  S
Mg1937     O1966   2.190   1_455  S
Mg1937     O1948   2.297   1_455  S
O1938     Mg1980   2.185       .  S
O1938     Mg1963   2.182       .  S
O1938      C1959   1.240       .  S
O1939      C1970   1.274       .  A
O1939     Mg1963   2.327       .  S
C1940      O1942   1.277       .  A
C1940      O1954   1.268       .  A
C1940      C1996   1.492       .  S
O1941      C1969   1.276       .  A
O1941     Mg1943   2.316       .  S
O1942     Mg1974   2.347       .  S
Mg1943     O1949   2.137       .  S
Mg1943     O1945   2.272       .  S
C1944      O1982   1.267       .  A
C1944      O1950   1.272       .  A
C1944      C2093   1.476       .  S
O1945      C1952   1.265       .  A
H1946      C1959   1.081       .  S
C1947      O1961   1.237       .  S
C1947      O1962   1.276       .  A
C1947      H1972   1.081       .  S
O1948      C1971   1.265       .  A
O1949     Mg1963   2.151       .  S
O1950     Mg1980   2.307       .  S
C1951      O1964   1.275       .  A
C1951      O1956   1.278       .  A
C1951      C2040   1.488       .  S
C1952      O1979   1.275       .  A
C1952      C2020   1.489       .  S
Mg1953     O1960   2.172       .  S
Mg1953     O1961   2.128       .  S
Mg1953     O1954   2.284       .  S
Mg1953     O1955   2.323       .  S
Mg1953     O1982   2.258       .  S
O1955      C1959   1.276       .  A
O1956     Mg1963   2.337       .  S
O1957      C1976   1.260       .  A
O1958     Mg1974   2.379       .  S
O1960     Mg1974   2.164       .  S
O1960      C1971   1.230       .  S
O1961     Mg1980   2.187       .  S
O1962     Mg1974   2.338       .  S
Mg1963     O1979   2.343       .  S
O1964     Mg1980   2.271       .  S
H1965      C1970   1.081   1_455  S
O1966     Mg1974   2.190       .  S
O1966      C1969   1.240       .  S
H1967      C1969   1.081       .  S
H1968      C1971   1.081       .  S
O1973     Mg1980   2.287       .  S
C1976      O1981   1.274       .  A
C1976      C2089   1.470       .  S
O1977      C1978   1.275       .  A
C1983      C1984   1.383       .  A
C1983      C1988   1.407       .  A
C1984      H2003   1.088       .  S
C1984      C1985   1.384       .  A
C1985      C1986   1.415       .  A
C1986      C1987   1.420       .  A
C1986      C1993   1.405       .  A
C1987      C1988   1.421       .  A
C1987      C1992   1.418       .  A
C1988      C1989   1.401       .  A
C1989      H1999   1.083       .  S
C1989      C1990   1.391       .  A
C1990      H2720   1.082       .  S
C1990      C1991   1.407       .  A
C1991      C1992   1.421       .  A
C1991      C1998   1.408       .  A
C1992      C1995   1.425       .  A
C1993      H2001   1.083       .  S
C1993      C1994   1.399       .  A
C1994      H2002   1.083       .  S
C1994      C1995   1.407       .  A
C1995      C1996   1.417       .  A
C1996      C1997   1.408       .  A
C1997      H2004   1.085       .  S
C1997      C1998   1.407       .  A
C1998      C2624   1.483       .  S
H2000      C2710   1.082       .  S
C2005      C2006   1.399       .  A
C2005      C2010   1.406       .  A
C2006      H2025   1.086       .  S
C2006      C2007   1.400       .  A
C2007      C2008   1.415       .  A
C2008      C2009   1.427       .  A
C2008      C2015   1.402       .  A
C2009      C2010   1.418       .  A
C2010      C2011   1.406       .  A
C2011      H2021   1.083       .  S
C2012      H2022   1.083       .  S
C2012      C2013   1.402       .  A
C2013      C2014   1.428       .  A
C2013      C2020   1.413       .  A
C2014      C2017   1.418       .  A
C2015      H2023   1.083       .  S
C2016      H2024   1.082       .  S
C2016      C2017   1.408       .  A
C2017      C2018   1.408       .  A
C2018      C2019   1.404       .  A
C2019      H2026   1.086       .  S
C2019      C2020   1.402       .  A
C2027      C2028   1.397       .  A
C2027      C2032   1.423       .  A
C2028      H2047   1.085       .  S
C2028      C2029   1.398       .  A
C2029      C2030   1.417       .  A
C2030      C2031   1.425       .  A
C2030      C2037   1.404       .  A
C2031      C2032   1.426       .  A
C2031      C2036   1.428       .  A
C2032      C2033   1.408       .  A
C2033      H2043   1.081       .  S
C2033      C2034   1.398       .  A
C2034      H2044   1.083       .  S
C2034      C2035   1.404       .  A
C2035      C2036   1.425       .  A
C2035      C2042   1.417       .  A
C2036      C2039   1.426       .  A
C2037      H2045   1.083       .  S
C2037      C2038   1.398       .  A
C2038      H2046   1.081       .  S
C2038      C2039   1.409       .  A
C2039      C2040   1.424       .  A
C2040      C2041   1.396       .  A
C2041      H2048   1.083       .  S
C2041      C2042   1.399       .  A
C2049      C2050   1.386       .  A
C2049      C2054   1.411       .  A
C2050      H2069   1.088       .  S
C2050      C2051   1.385       .  A
C2051      C2052   1.417       .  A
C2052      C2053   1.424       .  A
C2052      C2059   1.404       .  A
C2053      C2054   1.418       .  A
C2053      C2778   1.418       .  A
C2054      C2055   1.407       .  A
C2055      H2065   1.083       .  S
C2055      C2776   1.400       .  A
C2056      H2066   1.083       .  S
C2056      C2775   1.400   1_545  A
C2056      C2057   1.405       .  A
C2057      C2058   1.424       .  A
C2057      C2064   1.418       .  A
C2058      C2773   1.418   1_545  A
C2058      C2061   1.418       .  A
C2059      H2067   1.083       .  S
C2059      C2780   1.398       .  A
C2060      H2068   1.083       .  S
C2060      C2779   1.398   1_545  A
C2060      C2061   1.407       .  A
C2061      C2062   1.410       .  A
C2062      C2063   1.387       .  A
C2063      H2070   1.088       .  S
C2063      C2064   1.385       .  A
C2071      C2114   1.503   1_556  S
C2071      C2072   1.423       .  A
C2072      C2121   1.490       .  S
C2072      C2073   1.420       .  A
C2073      C2854   1.485       .  S
C2073      C2794   1.413   1_545  A
C2074      C2793   1.413       .  A
C2075      C2126   1.488       .  S
C2075      C2796   1.416       .  A
C2076      C2130   1.484       .  S
C2076      C2795   1.416   1_545  A
C2077      C2137   1.500       .  S
C2077      C2078   1.420       .  A
C2077      C2082   1.427       .  A
C2078      C2157   1.493       .  S
C2078      C2079   1.412       .  A
C2079      C2149   1.491       .  S
C2079      C2080   1.415       .  A
C2080      C2142   1.491       .  S
C2080      C2081   1.421       .  A
C2081      C2154   1.508       .  S
C2081      C2082   1.430       .  A
C2082      C2146   1.497       .  S
C2083      C2110   1.494       .  S
C2083      C2084   1.417       .  A
C2083      C2088   1.426       .  A
C2084      C2098   1.501       .  S
C2084      C2085   1.418       .  A
C2085      C2094   1.494       .  S
C2085      C2086   1.421       .  A
C2086      C2106   1.489       .  S
C2086      C2087   1.415       .  A
C2087      C2102   1.503       .  S
C2087      C2088   1.418       .  A
C2088      C2090   1.488       .  S
C2089      C2090   1.337       .  D
C2089      H2091   1.088       .  S
C2090      H2092   1.084       .  S
C2093      C2094   1.341       .  D
C2093      H2095   1.087       .  S
C2094      H2096   1.086       .  S
C2097      C2098   1.344       .  D
C2097      H2099   1.083       .  S
C2098      H2100   1.086       .  S
C2101      C2102   1.349       .  D
C2101      H2103   1.086       .  S
C2102      H2104   1.087       .  S
C2105      C2106   1.335       .  D
C2105      H2107   1.086       .  S
C2106      H2108   1.087       .  S
C2109      C2110   1.337       .  D
C2109      H2111   1.086       .  S
C2110      H2112   1.086       .  S
C2113      C2114   1.346   1_556  D
C2113      H2115   1.086       .  S
C2117      C2118   1.347   1_456  D
C2117      H2119   1.086       .  S
C2118      H2120   1.083       .  S
C2121      C2122   1.345   1_556  D
C2121      H2123   1.087       .  S
C2122      H2124   1.086       .  S
C2125      C2126   1.335   1_554  D
C2125      H2127   1.088       .  S
C2126      H2128   1.086       .  S
C2129      C2130   1.344       .  D
C2129      H2131   1.087       .  S
C2130      H2132   1.087   1_546  S
C2133      C2134   1.349   1_554  D
C2133      H2135   1.086       .  S
C2134      C2793   1.485       .  S
C2134      H2136   1.086       .  S
C2137      C2138   1.346       .  D
C2137      H2139   1.086       .  S
C2138      H2140   1.086       .  S
C2141      C2142   1.340       .  D
C2141      H2143   1.087       .  S
C2142      H2144   1.087       .  S
C2145      C2146   1.341       .  D
C2145      H2147   1.086       .  S
C2146      H2148   1.086       .  S
C2149      C2150   1.344       .  D
C2149      H2151   1.087       .  S
C2150      H2152   1.086       .  S
C2153      C2154   1.349       .  D
C2153      H2155   1.086       .  S
C2154      H2156   1.087       .  S
C2157      C2158   1.348       .  D
C2157      H2159   1.086       .  S
C2158      H2160   1.087       .  S
O2161     Mg2163   2.162       .  S
O2161     Mg2169   2.128       .  S
O2161      C2196   1.236       .  S
C2162      O2175   1.233       .  S
C2162      O2199   1.268       .  A
C2162      H2201   1.081       .  S
Mg2163     O2192   2.169       .  S
Mg2163     O2207   2.290       .  S
Mg2163     O2203   2.241       .  S
Mg2163     O2174   2.293       .  S
O2164     Mg2206   2.158       .  S
O2164     Mg2189   2.189       .  S
O2164      C2185   1.240       .  S
O2165      C2196   1.273       .  A
O2165     Mg2189   2.322       .  S
C2166      O2168   1.274       .  A
C2166      O2180   1.272       .  A
C2166      C2727   1.484       .  S
O2167      C2195   1.274       .  A
O2167     Mg2169   2.314       .  S
O2168     Mg2200   2.309       .  S
Mg2169     O2175   2.185       .  S
Mg2169     O2183   2.324       .  S
Mg2169     O2171   2.292       .  S
C2170      O2208   1.266       .  A
C2170      O2176   1.267       .  A
C2170      C2878   1.475       .  S
O2171      C2178   1.273       .  A
H2172      C2185   1.081       .  S
C2173      O2187   1.234       .  S
C2173      O2188   1.272       .  A
C2173      H2198   1.081       .  S
O2174      C2197   1.268       .  A
O2175     Mg2189   2.170       .  S
C2177      O2190   1.268       .  A
C2177      C2231   1.490       .  S
C2178      O2205   1.278       .  A
C2178      C2209   1.483       .  S
Mg2179     O2186   2.155       .  S
Mg2179     O2187   2.119       .  S
Mg2179     O2180   2.300       .  S
Mg2179     O2181   2.343       .  S
O2181      C2185   1.279       .  A
O2182     Mg2189   2.395       .  S
O2183      C2202   1.275       .  A
O2184      C2204   1.278       .  A
O2184     Mg2200   2.346       .  S
O2186     Mg2200   2.173       .  S
O2186      C2197   1.234       .  S
O2187     Mg2206   2.169       .  S
O2188     Mg2200   2.322       .  S
Mg2189     O2205   2.318       .  S
H2191      C2196   1.081       .  S
O2192     Mg2200   2.168       .  S
O2192      C2195   1.239       .  S
H2193      C2195   1.081       .  S
H2194      C2197   1.081       .  S
O2199     Mg2206   2.302       .  S
C2202      O2207   1.269       .  A
C2202      C2873   1.483       .  S
O2203      C2204   1.269       .  A
C2204      C2747   1.487       .  S
C2209      C2210   1.403       .  A
C2209      C2214   1.411       .  A
C2210      H2229   1.086       .  S
C2210      C2211   1.403       .  A
C2211      C2212   1.405       .  A
C2212      C2213   1.418       .  A
C2212      C2219   1.408       .  A
C2213      C2214   1.424       .  A
C2213      C2218   1.413       .  A
C2214      C2215   1.405       .  A
C2215      H2225   1.083       .  S
C2215      C2216   1.394       .  A
C2216      H2226   1.083       .  S
C2216      C2217   1.405       .  A
C2217      C2218   1.415       .  A
C2217      C2224   1.406       .  A
C2218      C2221   1.421       .  A
C2219      C2220   1.391       .  A
C2220      H2228   1.083       .  S
C2220      C2221   1.401       .  A
C2221      C2222   1.408       .  A
C2222      C2388   1.453       .  S
C2222      C2223   1.383       .  A
C2223      H2230   1.088       .  S
C2223      C2224   1.383       .  A
C2224      C2462   1.446       .  S
C2231      C2232   1.402       .  A
C2231      C2236   1.435       .  A
C2232      H2251   1.087       .  S
C2232      C2233   1.393       .  A
C2233      C2234   1.400       .  A
C2234      C2235   1.424       .  A
C2234      C2241   1.400       .  A
C2235      C2236   1.426       .  A
C2235      C2240   1.424       .  A
C2236      C2237   1.412       .  A
C2237      C2238   1.415       .  A
C2238      H2248   1.083       .  S
C2238      C2239   1.410       .  A
C2239      C2240   1.430       .  A
C2239      C2246   1.439       .  A
C2240      C2243   1.421       .  A
C2241      C2242   1.383       .  A
C2242      H2250   1.083       .  S
C2242      C2243   1.402       .  A
C2243      C2244   1.397       .  A
C2244      C2387   1.465       .  S
C2244      C2245   1.390       .  A
C2245      H2252   1.087       .  S
C2245      C2246   1.399       .  A
C2246      C2483   1.497       .  S
O2253     Mg2255   2.138       .  S
O2253     Mg2261   2.103       .  S
O2253      C2288   1.236       .  S
C2254      O2267   1.231       .  S
C2254      O2291   1.266       .  A
C2254      H2293   1.081       .  S
Mg2255     O2284   2.141       .  S
Mg2255     O2266   2.302       .  S
O2256     Mg2298   2.173       .  S
O2256     Mg2281   2.164       .  S
O2256      C2277   1.236       .  S
O2257      C2288   1.272       .  A
O2257     Mg2281   2.319       .  S
C2258      O2260   1.267   1_545  A
O2259      C2287   1.276       .  A
O2259     Mg2261   2.336       .  S
O2260     Mg2292   2.272       .  S
Mg2261     O2267   2.159       .  S
Mg2261     O2263   2.267       .  S
C2262      O2300   1.262       .  A
C2262      O2268   1.272       .  A
C2262      C2865   1.465       .  S
O2263      C2270   1.267       .  A
H2264      C2277   1.081       .  S
C2265      O2279   1.235       .  S
C2265      O2280   1.270       .  A
C2265      H2290   1.081       .  S
O2266      C2289   1.268       .  A
O2267     Mg2281   2.167       .  S
C2269      O2282   1.269       .  A
C2269      O2274   1.275       .  A
C2269      C2771   1.465       .  S
C2270      O2297   1.271       .  A
C2270      C2725   1.470       .  S
Mg2271     O2278   2.125       .  S
Mg2271     O2279   2.140       .  S
Mg2271     O2273   2.302       .  S
O2273      C2277   1.270       .  A
O2274     Mg2281   2.319       .  S
O2275      C2294   1.268       .  A
O2276     Mg2292   2.267       .  S
O2278     Mg2292   2.152       .  S
O2278      C2289   1.233       .  S
O2279     Mg2298   2.143       .  S
O2280     Mg2292   2.310       .  S
Mg2281     O2297   2.280       .  S
O2282     Mg2298   2.230       .  S
H2283      C2288   1.081       .  S
O2284     Mg2292   2.156       .  S
O2284      C2287   1.238       .  S
H2285      C2287   1.081       .  S
H2286      C2289   1.081       .  S
O2291     Mg2298   2.299       .  S
C2294      O2299   1.262       .  A
C2294      C2870   1.475       .  S
O2295      C2296   1.261       .  A
C2296      C2349   1.442       .  S
O2301     Mg2303   2.166       .  S
O2301     Mg2309   2.178       .  S
O2301      C2336   1.236       .  S
C2302      O2315   1.237       .  S
C2302      O2339   1.273       .  A
C2302      H2341   1.081       .  S
Mg2303     O2332   2.142       .  S
Mg2303     O2347   2.264       .  S
Mg2303     O2343   2.291       .  S
Mg2303     O2314   2.314       .  S
O2304     Mg2346   2.141       .  S
O2304     Mg2329   2.158       .  S
O2304      C2325   1.234       .  S
O2305      C2336   1.271       .  A
O2305     Mg2329   2.308       .  S
C2306      O2308   1.267       .  A
C2306      O2320   1.272       .  A
C2306      C2769   1.455       .  S
O2307      C2335   1.269       .  A
O2307     Mg2309   2.301       .  S
O2308     Mg2340   2.246       .  S
Mg2309     O2315   2.144       .  S
Mg2309     O2323   2.285       .  S
Mg2309     O2311   2.301       .  S
C2310      O2348   1.274       .  A
C2310      O2316   1.270       .  A
C2310      C2858   1.476       .  S
O2311      C2318   1.276       .  A
H2312      C2325   1.081   1_545  S
C2313      O2327   1.237       .  S
C2313      O2328   1.272       .  A
C2313      H2338   1.081       .  S
O2314      C2337   1.273       .  A
O2315     Mg2329   2.147       .  S
C2317      O2322   1.265       .  A
C2318      O2345   1.266       .  A
C2318      C2351   1.462       .  S
Mg2319     O2326   2.154       .  S
Mg2319     O2327   2.172       .  S
Mg2319     O2320   2.271       .  S
Mg2319     O2321   2.309   1_565  S
O2321      C2325   1.269   1_545  A
O2322     Mg2329   2.264       .  S
O2323      C2342   1.274       .  A
O2324      C2344   1.269       .  A
O2324     Mg2340   2.287       .  S
O2326     Mg2340   2.160       .  S
O2326      C2337   1.237       .  S
O2327     Mg2346   2.153       .  S
O2328     Mg2340   2.310       .  S
Mg2329     O2345   2.246       .  S
H2331      C2336   1.081       .  S
O2332     Mg2340   2.143       .  S
O2332      C2335   1.235       .  S
H2333      C2335   1.081       .  S
H2334      C2337   1.081       .  S
O2339     Mg2346   2.318       .  S
C2342      O2347   1.268       .  A
C2342      C2861   1.464       .  S
O2343      C2344   1.268       .  A
C2344      C2749   1.482       .  S
C2349      C2350   1.383       .  A
C2349      C2354   1.405       .  A
C2350      H2369   1.089       .  S
C2350      C2351   1.381       .  A
C2351      C2352   1.415       .  A
C2352      C2353   1.425       .  A
C2352      C2359   1.401       .  A
C2353      C2354   1.415       .  A
C2353      C2358   1.417       .  A
C2354      C2355   1.405       .  A
C2355      C2356   1.393       .  A
C2356      H2366   1.083       .  S
C2356      C2357   1.404       .  A
C2357      C2358   1.428       .  A
C2357      C2364   1.414       .  A
C2358      C2361   1.418       .  A
C2359      H2367   1.083       .  S
C2359      C2360   1.396       .  A
C2360      H2368   1.083       .  S
C2360      C2361   1.411       .  A
C2361      C2362   1.409       .  A
C2362      C2424   1.477       .  S
C2362      C2363   1.408       .  A
C2363      H2370   1.085       .  S
C2363      C2364   1.406       .  A
C2364      C2484   1.495       .  S
O2371     Mg2373   2.130   1_554  S
O2371      C2406   1.237       .  S
C2372      O2385   1.236       .  S
C2372      O2409   1.272       .  A
C2372      H2411   1.081       .  S
Mg2373     O2384   2.306       .  S
O2374     Mg2399   2.156       .  S
O2374      C2395   1.233       .  S
O2375      C2406   1.271       .  A
O2375     Mg2399   2.303       .  S
C2376      O2378   1.267       .  A
C2376      O2390   1.268       .  A
C2376      C2703   1.454       .  S
O2377      C2405   1.265   1_554  A
O2377     Mg2379   2.287       .  S
O2378     Mg2410   2.254       .  S
Mg2379     O2385   2.139       .  S
Mg2379     O2393   2.284       .  S
C2380      O2418   1.269       .  A
C2380      O2386   1.274   1_556  A
C2380      C2849   1.471       .  S
O2381      C2388   1.268       .  A
H2382      C2395   1.081       .  S
C2383      O2397   1.238       .  S
C2383      O2398   1.272       .  A
C2383      H2408   1.081       .  S
O2384      C2407   1.270       .  A
C2387      O2400   1.267       .  A
C2387      O2392   1.265       .  A
C2388      O2415   1.267       .  A
Mg2389     O2396   2.117       .  S
Mg2389     O2391   2.290       .  S
Mg2389     O2418   2.254       .  S
O2391      C2395   1.266   1_556  A
O2392     Mg2399   2.258       .  S
O2393      C2412   1.272       .  A
O2394      C2414   1.263       .  A
O2394     Mg2410   2.245       .  S
O2396      C2407   1.235       .  S
O2397     Mg2416   2.129   1_556  S
O2398     Mg2410   2.301       .  S
Mg2399     O2415   2.256       .  S
H2401      C2406   1.081       .  S
O2402     Mg2410   2.147       .  S
O2402      C2405   1.232       .  S
H2403      C2405   1.081       .  S
H2404      C2407   1.081       .  S
O2409     Mg2416   2.316       .  S
C2412      O2417   1.271   1_554  A
C2412      C2853   1.477       .  S
O2413      C2414   1.265       .  A
C2414      C2585   1.461       .  S
O2419     Mg2421   2.144   1_556  S
O2419     Mg2427   2.113       .  S
O2419      C2454   1.233       .  S
C2420      O2433   1.232       .  S
C2420      O2457   1.268       .  A
C2420      H2459   1.081       .  S
Mg2421     O2450   2.151       .  S
Mg2421     O2465   2.272       .  S
Mg2421     O2461   2.213       .  S
Mg2421     O2432   2.298       .  S
O2422     Mg2464   2.176       .  S
O2422     Mg2447   2.185       .  S
O2422      C2443   1.236       .  S
O2423      C2454   1.269       .  A
O2423     Mg2447   2.304       .  S
C2424      O2426   1.267       .  A
C2424      O2438   1.266       .  A
O2425      C2453   1.275       .  A
O2425     Mg2427   2.329   1_554  S
O2426     Mg2458   2.277       .  S
Mg2427     O2433   2.155       .  S
Mg2427     O2441   2.285       .  S
Mg2427     O2429   2.302       .  S
C2428      O2466   1.262   1_556  A
C2428      O2434   1.274       .  A
C2428      C2845   1.469   1_556  S
O2429      C2436   1.274       .  A
H2430      C2443   1.081       .  S
C2431      O2445   1.234       .  S
C2431      O2446   1.270       .  A
C2431      H2456   1.081       .  S
O2432      C2455   1.269       .  A
O2433     Mg2447   2.171       .  S
O2434     Mg2464   2.318       .  S
C2435      O2448   1.269       .  A
C2435      O2440   1.270       .  A
C2435      C2705   1.457       .  S
C2436      O2463   1.272       .  A
C2436      C2565   1.481       .  S
Mg2437     O2444   2.130       .  S
Mg2437     O2445   2.137       .  S
Mg2437     O2438   2.274       .  S
Mg2437     O2439   2.314   1_554  S
Mg2437     O2466   2.206       .  S
O2439      C2443   1.272       .  A
O2440     Mg2447   2.279       .  S
O2441      C2460   1.271   1_556  A
O2442      C2462   1.264       .  A
O2442     Mg2458   2.250       .  S
O2444     Mg2458   2.160       .  S
O2444      C2455   1.235       .  S
O2445     Mg2464   2.152   1_554  S
O2446     Mg2458   2.311       .  S
Mg2447     O2463   2.289       .  S
O2448     Mg2464   2.236       .  S
H2449      C2454   1.081       .  S
O2450     Mg2458   2.158       .  S
O2450      C2453   1.237       .  S
H2451      C2453   1.081       .  S
H2452      C2455   1.081       .  S
O2457     Mg2464   2.300       .  S
C2460      O2465   1.263       .  A
C2460      C2842   1.470       .  S
O2461      C2462   1.264       .  A
O2467     Mg2469   2.192   1_554  S
O2467      C2502   1.238       .  S
C2468      O2481   1.230       .  S
C2468      O2505   1.265       .  A
C2468      H2507   1.081       .  S
Mg2469     O2513   2.287       .  S
Mg2469     O2509   2.262       .  S
Mg2469     O2480   2.288       .  S
O2470      C2491   1.241       .  S
O2471      C2502   1.276       .  A
C2472      O2474   1.276       .  A
C2472      O2486   1.265       .  A
C2472      C2563   1.486       .  S
O2473      C2501   1.275       .  A
O2473     Mg2475   2.316   1_556  S
O2474     Mg2506   2.337       .  S
Mg2475     O2481   2.174       .  S
Mg2475     O2489   2.262       .  S
Mg2475     O2477   2.285       .  S
C2476      O2514   1.263       .  A
C2476      C2833   1.476       .  S
O2477      C2484   1.269       .  A
H2478      C2491   1.081       .  S
C2479      O2493   1.237       .  S
C2479      O2494   1.276       .  A
C2479      H2504   1.081       .  S
O2480      C2503   1.263       .  A
O2481     Mg2495   2.164       .  S
O2482     Mg2512   2.315   1_455  S
C2483      O2496   1.275       .  A
C2483      O2488   1.285       .  A
C2484      O2511   1.279       .  A
Mg2485     O2492   2.151       .  S
Mg2485     O2486   2.272       .  S
Mg2485     O2487   2.323   1_556  S
Mg2485     O2514   2.230       .  S
O2487      C2491   1.277       .  A
O2488     Mg2495   2.396       .  S
O2489      C2508   1.268   1_554  A
O2490      C2510   1.283       .  A
O2490     Mg2506   2.386       .  S
O2492     Mg2506   2.164       .  S
O2492      C2503   1.230       .  S
O2493     Mg2512   2.181   1_556  S
Mg2495     O2511   2.355       .  S
O2496     Mg2512   2.267       .  S
H2497      C2502   1.081       .  S
O2498      C2501   1.239       .  S
H2499      C2501   1.081       .  S
H2500      C2503   1.081       .  S
O2505     Mg2512   2.297       .  S
C2508      C2838   1.477   1_556  S
O2509      C2510   1.274       .  A
C2510      C2587   1.497       .  S
O2515     Mg2517   2.148       .  S
O2515     Mg2523   2.160       .  S
O2515      C2550   1.236       .  S
C2516      O2529   1.237       .  S
C2516      O2553   1.272       .  A
C2516      H2555   1.081       .  S
Mg2517     O2546   2.142       .  S
Mg2517     O2557   2.242       .  S
Mg2517     O2528   2.313       .  S
O2518     Mg2560   2.152       .  S
O2518     Mg2543   2.141       .  S
O2518      C2539   1.236       .  S
O2519      C2550   1.271       .  A
O2519     Mg2543   2.312       .  S
C2520      O2522   1.267       .  A
C2520      O2534   1.277       .  A
C2520      C2576   1.459       .  S
O2521      C2549   1.271       .  A
O2521     Mg2523   2.316       .  S
O2522     Mg2554   2.245       .  S
Mg2523     O2529   2.146       .  S
Mg2523     O2525   2.273       .  S
C2524      O2562   1.274       .  A
C2524      O2530   1.264       .  A
C2524      C2825   1.462       .  S
O2525      C2532   1.273       .  A
H2526      C2539   1.080       .  S
C2527      O2541   1.234       .  S
C2527      O2542   1.269       .  A
C2527      H2552   1.081       .  S
O2528      C2551   1.273       .  A
O2529     Mg2543   2.164       .  S
O2530     Mg2560   2.237       .  S
C2531      O2544   1.266       .  A
C2531      O2536   1.270       .  A
C2531      C2762   1.482       .  S
C2532      O2559   1.268       .  A
C2532      C2782   1.454       .  S
Mg2533     O2540   2.135       .  S
Mg2533     O2541   2.178       .  S
Mg2533     O2534   2.303       .  S
Mg2533     O2535   2.296       .  S
Mg2533     O2562   2.293       .  S
O2535      C2539   1.269       .  A
O2536     Mg2543   2.286       .  S
O2537      C2556   1.273       .  A
O2538      C2558   1.264       .  A
O2538     Mg2554   2.251       .  S
O2540     Mg2554   2.149       .  S
O2540      C2551   1.237       .  S
O2541     Mg2560   2.158       .  S
O2542     Mg2554   2.303       .  S
Mg2543     O2559   2.248       .  S
O2544     Mg2560   2.280       .  S
H2545      C2550   1.081       .  S
O2546     Mg2554   2.155       .  S
O2546      C2549   1.235       .  S
H2547      C2549   1.081       .  S
H2548      C2551   1.081       .  S
O2553     Mg2560   2.309       .  S
C2556      O2561   1.263       .  A
C2556      C2829   1.473       .  S
O2557      C2558   1.262       .  A
C2563      C2564   1.403       .  A
C2563      C2568   1.412       .  A
C2564      H2583   1.086       .  S
C2564      C2565   1.405       .  A
C2565      C2566   1.412       .  A
C2566      C2567   1.421       .  A
C2566      C2573   1.409       .  A
C2567      C2568   1.425       .  A
C2567      C2572   1.417       .  A
C2568      C2569   1.405       .  A
C2569      H2579   1.083       .  S
C2569      C2570   1.393       .  A
C2570      C2571   1.404       .  A
C2571      C2572   1.418       .  A
C2571      C2578   1.408       .  A
C2572      C2575   1.422       .  A
C2573      H2581   1.083       .  S
C2573      C2574   1.398       .  A
C2574      H2582   1.083       .  S
C2574      C2575   1.403       .  A
C2575      C2576   1.415       .  A
C2576      C2577   1.382       .  A
C2577      H2584   1.089       .  S
C2577      C2578   1.381       .  A
C2578      C2623   1.447       .  S
C2585      C2586   1.389       .  A
C2585      C2590   1.394       .  A
C2586      H2605   1.087       .  S
C2586      C2587   1.400       .  A
C2587      C2588   1.439       .  A
C2588      C2589   1.430       .  A
C2588      C2595   1.411       .  A
C2589      C2590   1.420       .  A
C2589      C2594   1.423       .  A
C2590      C2591   1.401       .  A
C2591      H2601   1.083   1_565  S
C2591      C2592   1.378       .  A
C2592      C2593   1.400       .  A
C2593      C2594   1.424       .  A
C2593      C2600   1.397       .  A
C2594      C2597   1.426       .  A
C2595      H2603   1.083       .  S
C2595      C2596   1.416       .  A
C2596      C2597   1.413       .  A
C2597      C2598   1.437       .  A
C2598      C2698   1.494       .  S
C2598      C2599   1.402       .  A
C2599      H2606   1.086       .  S
C2599      C2600   1.393       .  A
O2607     Mg2609   2.159       .  S
O2607     Mg2615   2.150       .  S
O2607      C2642   1.234       .  S
C2608      O2621   1.234       .  S
C2608      O2645   1.270       .  A
C2608      H2647   1.081       .  S
Mg2609     O2638   2.177       .  S
Mg2609     O2649   2.246       .  S
Mg2609     O2620   2.298       .  S
O2610     Mg2652   2.143       .  S
O2610     Mg2635   2.173       .  S
O2610      C2631   1.237       .  S
O2611      C2642   1.269       .  A
O2611     Mg2635   2.306       .  S
C2612      O2614   1.270       .  A
C2612      O2626   1.272       .  A
C2612      C2738   1.473       .  S
O2613      C2641   1.269       .  A
O2613     Mg2615   2.299       .  S
O2614     Mg2646   2.267       .  S
Mg2615     O2621   2.144       .  S
C2616      O2654   1.272       .  A
C2616      O2622   1.265       .  A
C2616      C2821   1.482       .  S
H2618      C2631   1.081       .  S
C2619      O2633   1.235       .  S
C2619      O2634   1.272       .  A
C2619      H2644   1.081   1_655  S
O2620      C2643   1.267       .  A
O2621     Mg2635   2.157       .  S
C2623      O2636   1.262       .  A
C2624      O2651   1.270       .  A
Mg2625     O2632   2.164       .  S
Mg2625     O2633   2.110       .  S
Mg2625     O2626   2.284       .  S
Mg2625     O2627   2.335       .  S
O2627      C2631   1.276       .  A
O2628     Mg2635   2.270       .  S
O2629      C2648   1.266       .  A
O2630      C2650   1.273       .  A
O2630     Mg2646   2.309       .  S
O2632     Mg2646   2.172       .  S
O2632      C2643   1.232       .  S
O2633     Mg2652   2.147       .  S
O2634     Mg2646   2.317       .  S
Mg2635     O2651   2.284       .  S
H2637      C2642   1.081       .  S
O2638     Mg2646   2.166       .  S
O2638      C2641   1.234       .  S
H2639      C2641   1.081       .  S
H2640      C2643   1.081       .  S
O2645     Mg2652   2.310       .  S
C2648      O2653   1.272       .  A
C2648      C2817   1.470       .  S
O2649      C2650   1.270       .  A
C2650      C2784   1.468       .  S
O2655     Mg2657   2.170   1_655  S
O2655     Mg2663   2.138       .  S
O2655      C2690   1.236       .  S
C2656      O2669   1.230       .  S
C2656      O2693   1.264       .  A
C2656      H2695   1.081       .  S
Mg2657     O2686   2.190   1_455  S
Mg2657     O2668   2.297   1_455  S
O2658     Mg2700   2.185       .  S
O2658     Mg2683   2.182       .  S
O2658      C2679   1.240       .  S
O2659      C2690   1.274       .  A
O2659     Mg2683   2.328       .  S
C2660      O2662   1.277       .  A
C2660      O2674   1.268       .  A
C2660      C2716   1.491       .  S
O2661      C2689   1.276       .  A
O2661     Mg2663   2.316       .  S
O2662     Mg2694   2.347       .  S
Mg2663     O2669   2.137       .  S
Mg2663     O2665   2.272       .  S
C2664      O2702   1.267       .  A
C2664      O2670   1.272       .  A
C2664      C2813   1.476       .  S
O2665      C2672   1.265       .  A
H2666      C2679   1.081       .  S
C2667      O2681   1.237       .  S
C2667      O2682   1.276       .  A
C2667      H2692   1.081       .  S
O2668      C2691   1.265       .  A
O2669     Mg2683   2.151       .  S
O2670     Mg2700   2.308       .  S
C2671      O2684   1.275       .  A
C2671      O2676   1.278       .  A
C2671      C2760   1.489       .  S
C2672      O2699   1.275       .  A
C2672      C2740   1.489       .  S
Mg2673     O2680   2.173       .  S
Mg2673     O2681   2.129       .  S
Mg2673     O2674   2.283       .  S
Mg2673     O2675   2.323       .  S
Mg2673     O2702   2.259       .  S
O2675      C2679   1.276       .  A
O2676     Mg2683   2.337       .  S
O2677      C2696   1.260       .  A
O2678     Mg2694   2.381       .  S
O2680     Mg2694   2.164       .  S
O2680      C2691   1.230       .  S
O2681     Mg2700   2.187       .  S
O2682     Mg2694   2.338       .  S
Mg2683     O2699   2.342       .  S
O2684     Mg2700   2.271       .  S
H2685      C2690   1.081   1_455  S
O2686     Mg2694   2.189       .  S
O2686      C2689   1.240       .  S
H2687      C2689   1.081       .  S
H2688      C2691   1.081       .  S
O2693     Mg2700   2.287       .  S
C2696      O2701   1.274       .  A
C2696      C2809   1.470       .  S
O2697      C2698   1.275       .  A
C2703      C2704   1.384       .  A
C2703      C2708   1.407       .  A
C2704      H2723   1.088       .  S
C2704      C2705   1.384       .  A
C2705      C2706   1.415       .  A
C2706      C2707   1.420       .  A
C2706      C2713   1.405       .  A
C2707      C2708   1.421       .  A
C2707      C2712   1.418       .  A
C2708      C2709   1.401       .  A
C2709      H2719   1.083       .  S
C2709      C2710   1.391       .  A
C2710      C2711   1.407       .  A
C2711      C2712   1.421       .  A
C2711      C2718   1.408       .  A
C2712      C2715   1.425       .  A
C2713      H2721   1.083       .  S
C2713      C2714   1.399       .  A
C2714      H2722   1.083       .  S
C2714      C2715   1.407       .  A
C2715      C2716   1.417       .  A
C2716      C2717   1.408       .  A
C2717      H2724   1.085       .  S
C2717      C2718   1.407       .  A
C2725      C2726   1.399       .  A
C2725      C2730   1.406       .  A
C2726      H2745   1.086       .  S
C2726      C2727   1.399       .  A
C2727      C2728   1.415       .  A
C2728      C2729   1.427       .  A
C2728      C2735   1.403       .  A
C2729      C2730   1.418       .  A
C2730      C2731   1.406       .  A
C2731      H2741   1.083       .  S
C2732      H2742   1.083       .  S
C2732      C2733   1.402       .  A
C2733      C2734   1.428       .  A
C2733      C2740   1.413       .  A
C2734      C2737   1.418       .  A
C2735      H2743   1.083       .  S
C2736      H2744   1.082       .  S
C2736      C2737   1.408       .  A
C2737      C2738   1.408       .  A
C2738      C2739   1.404       .  A
C2739      H2746   1.086       .  S
C2739      C2740   1.402       .  A
C2747      C2748   1.397       .  A
C2747      C2752   1.423       .  A
C2748      H2767   1.085       .  S
C2748      C2749   1.398       .  A
C2749      C2750   1.417       .  A
C2750      C2751   1.425       .  A
C2750      C2757   1.404       .  A
C2751      C2752   1.426       .  A
C2751      C2756   1.428       .  A
C2752      C2753   1.408       .  A
C2753      H2763   1.081       .  S
C2753      C2754   1.398       .  A
C2754      H2764   1.083       .  S
C2754      C2755   1.404       .  A
C2755      C2756   1.425       .  A
C2755      C2762   1.417       .  A
C2756      C2759   1.426       .  A
C2757      H2765   1.083       .  S
C2757      C2758   1.398       .  A
C2758      H2766   1.081       .  S
C2758      C2759   1.409       .  A
C2759      C2760   1.424       .  A
C2760      C2761   1.396       .  A
C2761      H2768   1.083       .  S
C2761      C2762   1.398       .  A
C2769      C2770   1.386       .  A
C2769      C2774   1.411       .  A
C2770      H2789   1.088       .  S
C2770      C2771   1.385       .  A
C2771      C2772   1.416       .  A
C2772      C2773   1.424       .  A
C2772      C2779   1.404       .  A
C2773      C2774   1.418       .  A
C2774      C2775   1.407       .  A
C2775      H2785   1.083       .  S
C2776      H2786   1.083       .  S
C2776      C2777   1.405       .  A
C2777      C2778   1.425       .  A
C2777      C2784   1.418       .  A
C2778      C2781   1.418       .  A
C2779      H2787   1.083       .  S
C2780      H2788   1.083       .  S
C2780      C2781   1.407       .  A
C2781      C2782   1.410       .  A
C2782      C2783   1.387       .  A
C2783      H2790   1.088       .  S
C2783      C2784   1.385       .  A
C2791      C2834   1.502   1_556  S
C2791      C2792   1.423       .  A
C2792      C2841   1.489       .  S
C2792      C2793   1.420       .  A
C2795      C2846   1.489       .  S
C2796      C2850   1.485       .  S
C2797      C2857   1.499       .  S
C2797      C2798   1.420       .  A
C2797      C2802   1.426       .  A
C2798      C2877   1.493       .  S
C2798      C2799   1.412       .  A
C2799      C2869   1.491       .  S
C2799      C2800   1.415       .  A
C2800      C2862   1.491       .  S
C2800      C2801   1.421       .  A
C2801      C2874   1.508       .  S
C2801      C2802   1.430       .  A
C2802      C2866   1.497       .  S
C2803      C2830   1.494       .  S
C2803      C2804   1.417       .  A
C2803      C2808   1.426       .  A
C2804      C2818   1.501       .  S
C2804      C2805   1.418       .  A
C2805      C2814   1.495       .  S
C2805      C2806   1.421       .  A
C2806      C2826   1.488       .  S
C2806      C2807   1.415       .  A
C2807      C2822   1.503       .  S
C2807      C2808   1.418       .  A
C2808      C2810   1.489       .  S
C2809      C2810   1.337       .  D
C2809      H2811   1.088       .  S
C2810      H2812   1.084       .  S
C2813      C2814   1.342       .  D
C2813      H2815   1.087       .  S
C2814      H2816   1.086       .  S
C2817      C2818   1.344       .  D
C2817      H2819   1.083       .  S
C2818      H2820   1.086       .  S
C2821      C2822   1.349       .  D
C2821      H2823   1.086       .  S
C2822      H2824   1.087       .  S
C2825      C2826   1.335       .  D
C2825      H2827   1.086       .  S
C2826      H2828   1.087       .  S
C2829      C2830   1.337       .  D
C2829      H2831   1.086       .  S
C2830      H2832   1.086       .  S
C2833      C2834   1.345   1_556  D
C2833      H2835   1.086       .  S
C2837      C2838   1.347   1_456  D
C2837      H2839   1.086       .  S
C2838      H2840   1.083       .  S
C2841      C2842   1.345   1_556  D
C2841      H2843   1.087       .  S
C2842      H2844   1.086       .  S
C2845      C2846   1.335   1_554  D
C2845      H2847   1.087       .  S
C2846      H2848   1.086       .  S
C2849      C2850   1.344       .  D
C2849      H2851   1.087       .  S
C2850      H2852   1.087   1_556  S
C2853      C2854   1.349   1_564  D
C2853      H2855   1.086       .  S
C2854      H2856   1.086       .  S
C2857      C2858   1.345       .  D
C2857      H2859   1.086       .  S
C2858      H2860   1.086       .  S
C2861      C2862   1.340       .  D
C2861      H2863   1.087       .  S
C2862      H2864   1.087       .  S
C2865      C2866   1.341       .  D
C2865      H2867   1.086       .  S
C2866      H2868   1.086       .  S
C2869      C2870   1.344       .  D
C2869      H2871   1.087       .  S
C2870      H2872   1.086       .  S
C2873      C2874   1.349       .  D
C2873      H2875   1.086       .  S
C2874      H2876   1.087       .  S
C2877      C2878   1.348       .  D
C2877      H2879   1.086       .  S
C2878      H2880   1.087       .  S
