geometry optimzed in LAMMPS
_audit_creation_date              2020-11-30 
_audit_creation_method            'lammps2cif' 
_symmetry_space_group_name_H-M    'P1' 
_symmetry_Int_Tables_number       1 
_symmetry_cell_setting            triclinic 
loop_ 
_symmetry_equiv_pos_as_xyz 
  x,y,z 
_cell_length_a                    43.76677581 
_cell_length_b                    35.07982317210929 
_cell_length_c                    39.900967086709365 
_cell_angle_alpha                 90.20255636843686 
_cell_angle_beta                  114.85063963762641 
_cell_angle_gamma                 89.94857048357706 
loop_ 
_atom_site_label 
_atom_site_type_symbol 
_atom_site_fract_x 
_atom_site_fract_y 
_atom_site_fract_z 
_atom_site_charge 
C1          C  0.87848779  0.25269325  0.73577434     0.82100
N2          N  0.84446453  0.25025852  0.71730895    -0.76200
C3          C  0.82764847  0.26778579  0.68436083     0.84500
N4          N  0.84550165  0.28827078  0.66988512    -0.76200
C5          C  0.87957843  0.29107652  0.68764267     0.84600
N6          N  0.89588154  0.27337076  0.72074436    -0.77900
Zn7        Zn  0.47376154  0.35900697  0.61168025     1.49700
Zn8        Zn  0.53922543  0.39404944  0.60925352     1.49400
Zn9        Zn  0.50907194  0.31396045  0.56832711     1.49100
Zn10       Zn  0.47107128  0.39289143  0.53534311     1.49500
O11         O  0.49827347  0.36498376  0.58088499    -1.82300
O12         O  0.49761941  0.38257480  0.66210900    -0.72900
O13         O  0.58002435  0.36308142  0.61552040    -0.72700
O14         O  0.49089016  0.27179954  0.58978458    -0.72200
O15         O  0.54319852  0.40731141  0.66005128    -0.72900
O16         O  0.46563885  0.30384469  0.61883711    -0.72500
O17         O  0.55936869  0.30781934  0.58774739    -0.73100
O18         O  0.46474898  0.36141031  0.49019175    -0.72500
O19         O  0.54031191  0.44375652  0.58431829    -0.73200
O20         O  0.48973474  0.30623654  0.51292688    -0.72600
O21         O  0.49369357  0.44244988  0.53209395    -0.73100
O22         O  0.42530845  0.40612536  0.53402664    -0.73000
O23         O  0.42924873  0.38457824  0.58804992    -0.72800
C24         C  0.52504263  0.40105142  0.67736028     0.79000
C25         C  0.58423382  0.32957627  0.60574144     0.79500
C26         C  0.47383477  0.27233518  0.60898524     0.78400
C27         C  0.47335578  0.32775458  0.48554779     0.78800
C28         C  0.52077402  0.45891838  0.55384772     0.80000
C29         C  0.41302529  0.40166565  0.55765006     0.79000
C30         C  0.11948112  0.47128679  0.44238920     0.82100
N31         N  0.10366718  0.44584290  0.45531549    -0.76200
C32         C  0.12121828  0.42639616  0.48704390     0.84500
N33         N  0.15486063  0.43226747  0.50554316    -0.76200
C34         C  0.17116772  0.45737439  0.49303661     0.84600
N35         N  0.15319617  0.47650049  0.46131301    -0.77900
C36         C  0.61156967  0.22700524  0.42852554     0.82100
N37         N  0.64569653  0.22739871  0.44229602    -0.76200
C38         C  0.66458134  0.20662346  0.47247933     0.84500
N39         N  0.64906505  0.18501806  0.48877838    -0.76200
C40         C  0.61492414  0.18363169  0.47524387     0.84600
N41         N  0.59621530  0.20456448  0.44469456    -0.77900
Zn42       Zn  0.00112309  0.04979741  0.54815267     1.49700
Zn43       Zn  0.96949405  0.09521489  0.59705119     1.49400
Zn44       Zn  0.03583248  0.12480604  0.59356797     1.49100
Zn45       Zn  0.96580491  0.13179009  0.52213457     1.49500
O46         O  0.99287496  0.10017686  0.56498464    -1.82300
O47         O  0.98360247  0.00735415  0.57024338    -0.72900
O48         O  0.99512986  0.11984382  0.64758224    -0.72700
O49         O  0.07420240  0.09361771  0.59379259    -0.72200
O50         O  0.96365641  0.03968775  0.60472027    -0.72900
O51         O  0.05112277  0.04099143  0.56252196    -0.72500
O52         O  0.04305360  0.13677196  0.64578862    -0.73100
O53         O  0.99013401  0.18031998  0.52129141    -0.72500
O54         O  0.92328475  0.11913860  0.57380723    -0.73200
O55         O  0.03841623  0.17436629  0.57098806    -0.72600
O56         O  0.92098152  0.14575238  0.52242730    -0.73100
O57         O  0.95680104  0.10405848  0.47455109    -0.73000
O58         O  0.97888433  0.04671793  0.49225744    -0.72800
C59         C  0.96985764  0.00817985  0.59283492     0.79000
C60         C  0.02442021  0.13457300  0.66307233     0.79500
C61         C  0.07692573  0.06164416  0.58014814     0.78400
C62         C  0.01905513  0.19295947  0.54277822     0.78800
C63         C  0.90757653  0.13840168  0.54453098     0.80000
C64         C  0.96324265  0.07062555  0.46676226     0.79000
C65         C  0.37334123  0.49712360  0.71725383     0.82100
N66         N  0.38853259  0.02098161  0.70151569    -0.76200
C67         C  0.37143921  0.03938473  0.66890154     0.84500
N68         N  0.33778101  0.03336058  0.65021349    -0.76200
C69         C  0.32117568  0.00936910  0.66341680     0.84600
N70         N  0.33954239  0.49205463  0.69857464    -0.77900
C71         C  0.87532653  0.47212978  0.20609941     0.82100
N72         N  0.84159623  0.47368649  0.18533062    -0.76200
C73         C  0.82647531  0.45161529  0.15480316     0.84500
N74         N  0.84555977  0.42741620  0.14496429    -0.76200
C75         C  0.87941955  0.42553202  0.16512402     0.84600
N76         N  0.89405442  0.44767577  0.19587286    -0.77900
Zn77       Zn  0.51034847  0.41155638  0.06019069     1.49700
Zn78       Zn  0.47735197  0.33014561  0.03053902     1.49400
Zn79       Zn  0.54292265  0.33661839  0.10697274     1.49100
Zn80       Zn  0.47321848  0.36762568  0.10256891     1.49500
O81         O  0.50079334  0.36140694  0.07493597    -1.82300
O82         O  0.48933168  0.41744026  0.00492424    -0.72900
O83         O  0.50604622  0.28504609  0.02990549    -0.72700
O84         O  0.58246993  0.36885841  0.11202354    -0.72200
O85         O  0.46686375  0.36082341  0.98369761    -0.72900
O86         O  0.56013722  0.41959264  0.07728731    -0.72500
O87         O  0.54904351  0.28697868  0.08519258    -0.73100
O88         O  0.49706362  0.34859106  0.15495742    -0.72500
O89         O  0.43381886  0.30932167  0.02999070    -0.73200
O90         O  0.54538183  0.32637266  0.15772070    -0.72600
O91         O  0.43089829  0.33616072  0.07915608    -0.73100
O92         O  0.46235460  0.42338532  0.10597889    -0.73000
O93         O  0.49222339  0.45358672  0.08111706    -0.72800
C94         C  0.47327855  0.39507811  0.97806492     0.79000
C95         C  0.53329261  0.27099377  0.05391632     0.79500
C96         C  0.58570511  0.40026623  0.09796032     0.78400
C97         C  0.52540193  0.33263093  0.17287615     0.78800
C98         C  0.41889429  0.31410811  0.05113880     0.80000
C99         C  0.47291180  0.45426127  0.09767819     0.79000
C100        C  0.12493683  0.24101704  0.92309920     0.82100
N101        N  0.15895940  0.23694616  0.94135952    -0.76200
C102        C  0.17676561  0.25611595  0.97336984     0.84500
N103        N  0.16003045  0.27986889  0.98676780    -0.76200
C104        C  0.12617346  0.28453834  0.96903140     0.84600
N105        N  0.10871890  0.26506331  0.93711003    -0.77900
C106        C  0.62742334  0.49216316  0.94062066     0.82100
N107        N  0.66133638  0.48654098  0.95747663    -0.76200
C108        C  0.68087570  0.50565272  0.98891689     0.84500
N109        N  0.66587263  0.03313015  0.00267887    -0.76200
C110        C  0.63222502  0.03955901  0.98671163     0.84600
N111        N  0.61271316  0.02003563  0.95561573    -0.77900
C112        C  0.39206545  0.22705748  0.22571759     0.82100
N113        N  0.35792523  0.22462848  0.20925144    -0.76200
C114        C  0.34185404  0.20414604  0.17775432     0.84500
N115        N  0.36044336  0.18599737  0.16261818    -0.76200
C116        C  0.39460260  0.18799508  0.17861050     0.84600
N117        N  0.41036022  0.20806123  0.21058152    -0.77900
Zn118      Zn  0.05182756  0.06932034  0.11444042     1.49700
Zn119      Zn  0.98333643  0.07241532  0.04047417     1.49400
Zn120      Zn  0.98533564  0.10575521  0.11536363     1.49100
Zn121      Zn  0.02427227  0.14971129  0.07435514     1.49500
O122        O  0.01135545  0.09939069  0.08616719    -1.82300
O123        O  0.05197494  0.02022314  0.08758463    -0.72900
O124        O  0.93774832  0.05831940  0.03836988    -0.72700
O125        O  0.00968754  0.08381530  0.16623246    -0.72200
O126        O  0.00564155  0.02390031  0.03527952    -0.72900
O127        O  0.05474809  0.05611263  0.16510724    -0.72500
O128        O  0.94028339  0.07911086  0.09206071    -0.73100
O129        O  0.00517489  0.19251789  0.09438491    -0.72500
O130        O  0.97532670  0.10493591  0.99634208    -0.73200
O131        O  0.97659724  0.16139553  0.12020298    -0.72600
O132        O  0.00484597  0.15759049  0.01887422    -0.73100
O133        O  0.07521370  0.15473941  0.09496193    -0.73000
O134        O  0.09391755  0.09889492  0.12160248    -0.72800
C135        C  0.03240122  0.00652418  0.05622454     0.79000
C136        C  0.92461255  0.06223778  0.06122930     0.79500
C137        C  0.03645344  0.06427029  0.18195069     0.78400
C138        C  0.98589710  0.19257566  0.11106911     0.78800
C139        C  0.98525394  0.13768676  0.99148336     0.80000
C140        C  0.09952261  0.13215611  0.11264800     0.79000
C141        C  0.25759058  0.15285566  0.13644899     0.14500
C142        C  0.23727894  0.17727631  0.14638290     0.01500
C143        C  0.25077299  0.21200074  0.16404754     0.16500
C144        C  0.28427494  0.22165488  0.17260372     0.25900
C145        C  0.30511089  0.19662478  0.16386128    -0.40500
C146        C  0.29108536  0.16239923  0.14495092     0.32900
C147        C  0.20216326  0.16629874  0.13864000     0.01500
F148        F  0.23182881  0.23600699  0.17426221    -0.12800
F149        F  0.31007072  0.13713499  0.13609453    -0.13300
C150        C  0.19558976  0.13255382  0.15331193     0.16500
C151        C  0.16245410  0.12172322  0.14539604     0.25900
C152        C  0.13497283  0.14448434  0.12249154    -0.40400
C153        C  0.14186978  0.17872428  0.10841347     0.32800
C154        C  0.17505287  0.18938759  0.11638805     0.14500
F155        F  0.22139140  0.11020499  0.17575709    -0.12800
F156        F  0.11655764  0.20177245  0.08627474    -0.13300
F157        F  0.15748785  0.08892811  0.16040062    -0.15600
F158        F  0.18069155  0.22192762  0.10152546    -0.14100
F159        F  0.24504068  0.11943287  0.11875988    -0.14100
F160        F  0.29639020  0.25536676  0.18989195    -0.15500
C161        C  0.77260603  0.03039795  0.04631232     0.14500
C162        C  0.78824705  0.01303485  0.02584646     0.01500
C163        C  0.76895184  0.98936191  0.99589273     0.16500
C164        C  0.73417406  0.98544181  0.98488782     0.25900
C165        C  0.71793307  0.00513524  0.00378754    -0.40500
C166        C  0.73806758  0.02610384  0.03581258     0.32900
C167        C  0.82392628  0.02214473  0.03422160     0.01500
F168        F  0.78367612  0.97075768  0.97663033    -0.12800
F169        F  0.72434192  0.04400790  0.05643233    -0.13300
C170        C  0.84931006  0.01811078  0.07024767     0.16500
C171        C  0.88208803  0.03090488  0.07899880     0.25900
C172        C  0.89032452  0.04724796  0.05169071    -0.40400
C173        C  0.86524757  0.05004944  0.01536151     0.32800
C174        C  0.83231459  0.03794681  0.00678802     0.14500
F175        F  0.84284321  0.50250630  0.09784918    -0.12800
F176        F  0.87217193  0.06637815  0.98852050    -0.13300
F177        F  0.90586473  0.02702851  0.11416121    -0.15600
F178        F  0.80823108  0.04344492  0.97203324    -0.14100
F179        F  0.79037077  0.05365170  0.07526327    -0.14100
F180        F  0.71644019  0.96353845  0.95484404    -0.15500
C181        C  0.03454853  0.42070532  0.99729786     0.18500
C182        C  0.06271295  0.40061841  0.02206231     0.01500
C183        C  0.07834016  0.41267450  0.05905782     0.16500
C184        C  0.06749400  0.44564459  0.07061605     0.25900
C185        C  0.04058180  0.46740300  0.04535033    -0.40500
C186        C  0.02347616  0.45368730  0.00878726     0.32900
C187        C  0.07833800  0.37005885  0.00866077     0.01500
F188        F  0.10490952  0.39299815  0.08386927    -0.12800
F189        F  0.01053500  0.98774796  0.97975908    -0.13300
C190        C  0.11153805  0.37477968  0.01264459     0.16500
C191        C  0.12688082  0.34694387  0.99992120     0.25900
C192        C  0.10935673  0.31356857  0.98266666    -0.40400
C193        C  0.07587355  0.30894159  0.97821825     0.32800
C194        C  0.06051303  0.33695856  0.99121886     0.14500
F195        F  0.12891544  0.40710988  0.02801039    -0.12800
F196        F  0.05825932  0.27703227  0.96199260    -0.13300
F197        F  0.15857449  0.35357037  0.00325354    -0.15600
F198        F  0.02847284  0.33152710  0.98729150    -0.14100
F199        F  0.01894987  0.40969513  0.96137779    -0.14100
F200        F  0.08392788  0.45653268  0.10649229    -0.15500
C201        C  0.26790230  0.28580004  0.02896833     0.14500
C202        C  0.28540528  0.25898370  0.01753828     0.01500
C203        C  0.26746407  0.22871871  0.99454967     0.16500
C204        C  0.23231167  0.22660199  0.98146738     0.25900
C205        C  0.21438168  0.25483782  0.99114644    -0.40500
C206        C  0.23296727  0.28368948  0.01622160     0.32900
C207        C  0.32155778  0.26551640  0.02664650     0.01500
F208        F  0.28395086  0.20163402  0.98414630    -0.12800
F209        F  0.21745302  0.31140565  0.02712207    -0.13300
C210        C  0.34494137  0.27065750  0.06350608     0.16500
C211        C  0.37711001  0.28503638  0.07158307     0.25900
C212        C  0.38660806  0.29420008  0.04290327    -0.40400
C213        C  0.36413179  0.28598501  0.00620769     0.32800
C214        C  0.33183292  0.27203258  0.99815875     0.14500
F215        F  0.33615078  0.26303734  0.09164189    -0.12800
F216        F  0.37249554  0.29390140  0.97783714    -0.13300
F217        F  0.39877095  0.29056562  0.10747659    -0.15600
F218        F  0.30976003  0.26756365  0.96228233    -0.14100
F219        F  0.28442910  0.31572032  0.05071803    -0.14100
F220        F  0.21591827  0.19721143  0.95886892    -0.15500
C221        C  0.58263963  0.17901085  0.06560634     0.14500
C222        C  0.57460563  0.16903901  0.02880560     0.01500
C223        C  0.55314035  0.19254599  0.00024599     0.16500
C224        C  0.53956310  0.22557944  0.00832755     0.25900
C225        C  0.54723837  0.23563056  0.04525405    -0.40500
C226        C  0.56907165  0.21197004  0.07383755     0.32900
C227        C  0.58964843  0.13487132  0.02014737     0.01500
F228        F  0.54610453  0.18398712  0.96453159    -0.12800
F229        F  0.57704442  0.22040838  0.10978932    -0.13300
C230        C  0.57000362  0.10234724  0.00480931     0.16500
C231        C  0.58399703  0.07072584  0.99488167     0.25900
C232        C  0.61789578  0.07130758  0.00010929    -0.40400
C233        C  0.63762813  0.10382087  0.01629311     0.32800
C234        C  0.62357684  0.13524357  0.02619222     0.14500
F235        F  0.53724099  0.10135660  0.99937972    -0.12800
F236        F  0.67012855  0.10615309  0.02090197    -0.13300
F237        F  0.56444758  0.03957241  0.98030552    -0.15600
F238        F  0.64279839  0.16669402  0.04048369    -0.14100
F239        F  0.60358404  0.15667110  0.09355940    -0.14100
F240        F  0.51986927  0.24836574  0.98003389    -0.15500
C241        C  0.45214102  0.10859213  0.17760264     0.14500
C242        C  0.43880889  0.09969197  0.13977942     0.01500
C243        C  0.41493165  0.12419087  0.11434539     0.16500
C244        C  0.40237514  0.15522535  0.12687356     0.25900
C245        C  0.41376503  0.16231982  0.16499253    -0.40500
C246        C  0.43993663  0.13980559  0.19012802     0.32900
C247        C  0.44719648  0.06280786  0.12753543     0.01500
F248        F  0.40207674  0.11651046  0.07759422    -0.12800
F249        F  0.45162994  0.14577732  0.22706259    -0.13300
C250        C  0.43808069  0.02863771  0.13914959     0.16500
C251        C  0.44713486  0.49357119  0.13217990     0.25900
C252        C  0.46309835  0.49170923  0.10798320    -0.40400
C253        C  0.47237387  0.02614965  0.09377184     0.32800
C254        C  0.46407254  0.06134455  0.10447797     0.14500
F255        F  0.42097285  0.02939053  0.16073566    -0.12800
F256        F  0.48897164  0.02612684  0.07167706    -0.13300
F257        F  0.43969186  0.46141958  0.14609517    -0.15600
F258        F  0.47310714  0.09405255  0.09291764    -0.14100
F259        F  0.47575273  0.08573173  0.20260327    -0.14100
F260        F  0.37800269  0.17734559  0.10186899    -0.15500
C261        C  0.68060790  0.40998857  0.14042405     0.14500
C262        C  0.68556858  0.43308578  0.11449320     0.01500
C263        C  0.65764691  0.44770295  0.08447207     0.16500
C264        C  0.62500998  0.43810037  0.07961703     0.25900
C265        C  0.61991698  0.41371349  0.10488734    -0.40500
C266        C  0.64813420  0.40033934  0.13571712     0.32900
C267        C  0.72007821  0.43997543  0.11822622     0.01500
F268        F  0.66204809  0.46990451  0.05905342    -0.12800
F269        F  0.64440370  0.37763663  0.16125454    -0.13300
C270        C  0.73915889  0.40929165  0.11484436     0.16500
C271        C  0.77340206  0.41382234  0.12389142     0.25900
C272        C  0.78926129  0.44918017  0.13697050    -0.40400
C273        C  0.76946175  0.48060660  0.13782232     0.32800
C274        C  0.73505168  0.47600713  0.12840756     0.14500
F275        F  0.72487255  0.37434680  0.10452219    -0.12800
F276        F  0.78269379  0.01467089  0.14745877    -0.13300
F277        F  0.79141869  0.38272612  0.12271290    -0.15600
F278        F  0.71683800  0.50608618  0.13148684    -0.14100
F279        F  0.70739484  0.39636024  0.17016744    -0.14100
F280        F  0.59856038  0.45113521  0.04920907    -0.15500
C281        C  0.94292844  0.34722026  0.17694151     0.14500
C282        C  0.93238897  0.33393851  0.14056494     0.01500
C283        C  0.90599539  0.35268269  0.11184658     0.16500
C284        C  0.88944783  0.38337268  0.11960411     0.25900
C285        C  0.89928137  0.39604717  0.15626489    -0.40500
C286        C  0.92667733  0.37804733  0.18476656     0.32900
C287        C  0.94678880  0.29834050  0.13326349     0.01500
F288        F  0.89521836  0.34009054  0.07649958    -0.12800
F289        F  0.93652135  0.38864485  0.22056516    -0.13300
C290        C  0.94038694  0.26363555  0.14640349     0.16500
C291        C  0.95338708  0.22957005  0.13963060     0.25900
C292        C  0.97330594  0.22935890  0.11945855    -0.40400
C293        C  0.97987735  0.26452106  0.10651175     0.32800
C294        C  0.96659005  0.29862185  0.11326755     0.14500
F295        F  0.92085156  0.26267346  0.16532180    -0.12800
F296        F  0.99881895  0.26607424  0.08695578    -0.13300
F297        F  0.94610337  0.19679737  0.15276610    -0.15600
F298        F  0.97324765  0.33199884  0.10052550    -0.14100
F299        F  0.96838247  0.32945297  0.20510319    -0.14100
F300        F  0.86343772  0.40024404  0.09130340    -0.15500
C301        C  0.44506607  0.39755339  0.87391891     0.14500
C302        C  0.43860773  0.43659312  0.86619640     0.01500
C303        C  0.44490301  0.46206740  0.89567860     0.16500
C304        C  0.45668410  0.44869924  0.93199211     0.25900
C305        C  0.46192793  0.40938840  0.93962880    -0.40500
C306        C  0.45631862  0.38404000  0.91014530     0.32900
C307        C  0.42350334  0.45042550  0.82734693     0.01500
F308        F  0.43839376  0.49984791  0.88921317    -0.12800
F309        F  0.46220898  0.34614427  0.91636040    -0.13300
C310        C  0.39319505  0.43456899  0.80160456     0.16500
C311        C  0.37765119  0.44876968  0.76561169     0.25900
C312        C  0.39176600  0.47968994  0.75448905    -0.40400
C313        C  0.42266767  0.49494674  0.78012893     0.32800
C314        C  0.43835422  0.48036629  0.81607195     0.14500
F315        F  0.37784594  0.40608037  0.81169923    -0.12800
F316        F  0.43729325  0.52490662  0.77107753    -0.13300
F317        F  0.34852854  0.43223288  0.74180224    -0.15600
F318        F  0.46802373  0.49575288  0.83998841    -0.14100
F319        F  0.44059522  0.37242355  0.84628216    -0.14100
F320        F  0.46179809  0.47424616  0.95949468    -0.15500
C321        C  0.16936915  0.06486357  0.59926703     0.14500
C322        C  0.17725613  0.02610825  0.59972484     0.01500
C323        C  0.15159500  0.99878873  0.59095085     0.16500
C324        C  0.11853727  0.01013700  0.58320903     0.25900
C325        C  0.11092283  0.04902047  0.58482414    -0.40500
C326        C  0.13663049  0.07626986  0.59193922     0.32900
C327        C  0.21296802  0.01480225  0.61353051     0.01500
F328        F  0.16028786  0.46102209  0.59879104    -0.12800
F329        F  0.13025900  0.11414981  0.59214600    -0.13300
C330        C  0.23034798  0.00411398  0.65059617     0.16500
C331        C  0.26537858  0.00036187  0.66636454     0.25900
C332        C  0.28378194  0.00720516  0.64521563    -0.40400
C333        C  0.26646719  0.51522318  0.60983670     0.32800
C334        C  0.23085612  0.02011069  0.59185005     0.14500
F335        F  0.21356206  0.00017605  0.67229958    -0.12800
F336        F  0.28290950  0.51965036  0.58785857    -0.13300
F337        F  0.28130758  0.99294404  0.70307806    -0.15600
F338        F  0.21479622  0.52871326  0.55810300    -0.14100
F339        F  0.19385022  0.09169204  0.60755171    -0.14100
F340        F  0.09571836  0.48291703  0.58263088    -0.15500
C341        C  0.03026574  0.16073056  0.75875750     0.14500
C342        C  0.06198965  0.17829847  0.77501167     0.01500
C343        C  0.08094771  0.18218941  0.75429245     0.16500
C344        C  0.06874125  0.16826098  0.71809503     0.25900
C345        C  0.03714049  0.14977590  0.70166010    -0.40500
C346        C  0.01796148  0.14646920  0.72253158     0.32900
C347        C  0.07590594  0.19208386  0.81379630     0.01500
F348        F  0.11133146  0.19996704  0.76910287    -0.12800
F349        F  0.98737395  0.12918328  0.70816801    -0.13300
C350        C  0.10514005  0.17540776  0.84046017     0.16500
C351        C  0.12019753  0.19021092  0.87636719     0.25900
C352        C  0.10648826  0.22240202  0.88636747    -0.40400
C353        C  0.07625350  0.23805184  0.85986549     0.32800
C354        C  0.06117842  0.22300275  0.82395760     0.14500
F355        F  0.11933629  0.14485837  0.83152285    -0.12800
F356        F  0.06203186  0.26910322  0.86795185    -0.13300
F357        F  0.14834121  0.17299756  0.90125565    -0.15600
F358        F  0.03303462  0.23978244  0.79858070    -0.14100
F359        F  0.01148703  0.15667472  0.77830120    -0.14100
F360        F  0.08804308  0.17316992  0.69924980    -0.15500
C361        C  0.93868224  0.00982368  0.29795516     0.14500
C362        C  0.91749103  0.02449960  0.31331619     0.01500
C363        C  0.88337581  0.52630055  0.29220039     0.16500
C364        C  0.86974148  0.51115041  0.25648974     0.25900
C365        C  0.88996009  0.99300012  0.24106181    -0.40500
C366        C  0.92514935  0.99424185  0.26225928     0.32900
C367        C  0.93134122  0.03758026  0.35238010     0.01500
F368        F  0.86219682  0.54119042  0.30577790    -0.12800
F369        F  0.94663940  0.97990355  0.24886302    -0.13300
C370        C  0.92304162  0.07369108  0.36147265     0.16500
C371        C  0.93337047  0.08450907  0.39843223     0.25900
C372        C  0.95264469  0.05950699  0.42731512    -0.40400
C373        C  0.96195153  0.02384831  0.41795253     0.32800
C374        C  0.95121995  0.01298453  0.38097696     0.14500
F375        F  0.90477216  0.09857563  0.33444582    -0.12800
F376        F  0.98127555  0.99908515  0.44448174    -0.13300
F377        F  0.92407637  0.11941040  0.40568942    -0.15600
F378        F  0.95932022  0.97770428  0.37316644    -0.14100
F379        F  0.97258113  0.01012151  0.31780650    -0.14100
F380        F  0.83584058  0.51308559  0.23683287    -0.15500
C381        C  0.81973621  0.14546803  0.54143976     0.14500
C382        C  0.80612871  0.17661254  0.51771409     0.01500
C383        C  0.82636556  0.19579407  0.50359365     0.16500
C384        C  0.85930553  0.18356586  0.51235120     0.25900
C385        C  0.87292003  0.15214183  0.53589283    -0.40500
C386        C  0.85280804  0.13354655  0.55067748     0.32900
C387        C  0.77037356  0.18773736  0.50632106     0.01500
F388        F  0.81424629  0.22657799  0.48137211    -0.12800
F389        F  0.86463175  0.10283042  0.57305942    -0.13300
C390        C  0.75776889  0.19522100  0.53286661     0.16500
C391        C  0.72341530  0.20235927  0.52192310     0.25900
C392        C  0.70125609  0.20307120  0.48425425    -0.40400
C393        C  0.71406442  0.19708312  0.45770726     0.32800
C394        C  0.74819400  0.18906883  0.46863205     0.14500
F395        F  0.77871405  0.19539613  0.56941788    -0.12800
F396        F  0.69315664  0.19659668  0.42113219    -0.13300
F397        F  0.71177459  0.20858530  0.54810327    -0.15600
F398        F  0.75922670  0.18066807  0.44233818    -0.14100
F399        F  0.80053881  0.12554927  0.55459778    -0.14100
F400        F  0.87795010  0.20284910  0.49805939    -0.15500
C401        C  0.52090012  0.30859961  0.26393190     0.14500
C402        C  0.55365597  0.29539068  0.28510107     0.01500
C403        C  0.57715484  0.29508277  0.26965741     0.16500
C404        C  0.56814428  0.30757580  0.23355510     0.25900
C405        C  0.53520398  0.32066390  0.21185277    -0.40500
C406        C  0.51173401  0.32131766  0.22770408     0.32900
C407        C  0.56384949  0.28152837  0.32329420     0.01500
F408        F  0.60887890  0.28191171  0.28946443    -0.12800
F409        F  0.47976201  0.33384252  0.20817093    -0.13300
C410        C  0.54995689  0.24791732  0.33010885     0.16500
C411        C  0.56387103  0.23128992  0.36528364     0.25900
C412        C  0.59202435  0.24801680  0.39396788    -0.40400
C413        C  0.60427121  0.28305838  0.38758633     0.32800
C414        C  0.59027009  0.29965843  0.35260495     0.14500
F415        F  0.52461561  0.22972871  0.30205640    -0.12800
F416        F  0.63066414  0.30062411  0.41498574    -0.13300
F417        F  0.55162182  0.19731102  0.37035252    -0.15600
F418        F  0.60345861  0.33271544  0.34687105    -0.14100
F419        F  0.49789371  0.30950843  0.27849547    -0.14100
F420        F  0.59190316  0.30679787  0.22004141    -0.15500
C421        C  0.10493526  0.03495701  0.36111647     0.14500
C422        C  0.07680774  0.01712531  0.33375645     0.01500
C423        C  0.05979584  0.48426535  0.34140163     0.16500
C424        C  0.07273858  0.47154843  0.37800929     0.25900
C425        C  0.10226859  0.99200139  0.40772796    -0.40500
C426        C  0.11740194  0.02280127  0.39772679     0.32900
C427        C  0.06588292  0.02781787  0.29456597     0.01500
F428        F  0.03322908  0.46565142  0.31524970    -0.12800
F429        F  0.14484240  0.04076303  0.42319626    -0.13300
C430        C  0.08784822  0.02299401  0.27742254     0.16500
C431        C  0.07830711  0.03445110  0.24085920     0.25900
C432        C  0.04641034  0.05098429  0.22055606    -0.40400
C433        C  0.02422935  0.05505762  0.23782736     0.32800
C434        C  0.03397351  0.04366771  0.27444260     0.14500
F435        F  0.11865952  0.00704898  0.29619236    -0.12800
F436        F  0.99302901  0.07017943  0.21948297    -0.13300
F437        F  0.10063421  0.02978105  0.22569778    -0.15600
F438        F  0.01255656  0.04915748  0.29063259    -0.14100
F439        F  0.12079070  0.06379548  0.35217325    -0.14100
F440        F  0.05801512  0.44099227  0.38603276    -0.15500
C441        C  0.10848781  0.33115839  0.52340897     0.14500
C442        C  0.07372020  0.33138338  0.51339642     0.01500
C443        C  0.05467638  0.36365595  0.49625691     0.16500
C444        C  0.07021420  0.39524308  0.48869573     0.25900
C445        C  0.10505863  0.39486065  0.49813098    -0.40500
C446        C  0.12406846  0.36254231  0.51594848     0.32900
C447        C  0.05759654  0.29757146  0.52075513     0.01500
F448        F  0.02107968  0.36455705  0.48701502    -0.12800
F449        F  0.15750524  0.36027834  0.52457534    -0.13300
C450        C  0.06742212  0.28517209  0.55717908     0.16500
C451        C  0.05429441  0.25156897  0.56430443     0.25900
C452        C  0.03096541  0.22978000  0.53503408    -0.40400
C453        C  0.02063973  0.24264518  0.49851186     0.32800
C454        C  0.03396693  0.27630709  0.49144991     0.14500
F455        F  0.09005098  0.30553315  0.58587439    -0.12800
F456        F  0.99900762  0.22173038  0.46957563    -0.13300
F457        F  0.06446188  0.24037466  0.59992910    -0.15600
F458        F  0.02499070  0.28726705  0.45595356    -0.14100
F459        F  0.12720934  0.29985425  0.53928782    -0.14100
F460        F  0.05120579  0.42616918  0.47228867    -0.15500
C461        C  0.26209038  0.42851961  0.54899425     0.14500
C462        C  0.27834051  0.44852763  0.53069831     0.01500
C463        C  0.26029163  0.47590514  0.50424301     0.16500
C464        C  0.22585387  0.48088003  0.49380365     0.25900
C465        C  0.20866074  0.45842501  0.50971453    -0.40500
C466        C  0.22771627  0.43375149  0.53900321     0.32900
C467        C  0.31337215  0.43905739  0.53735723     0.01500
F468        F  0.27589353  0.49709201  0.48761629    -0.12800
F469        F  0.21306588  0.41324413  0.55708664    -0.13300
C470        C  0.32077907  0.42731318  0.50780543     0.16500
C471        C  0.35346958  0.41641834  0.51408681     0.25900
C472        C  0.37914716  0.41634269  0.55014873    -0.40400
C473        C  0.37178636  0.42867652  0.57961003     0.32800
C474        C  0.33924674  0.44012869  0.57321930     0.14500
F475        F  0.29600195  0.42483905  0.47301402    -0.12800
F476        F  0.39618458  0.42986315  0.61469039    -0.13300
F477        F  0.35957576  0.40416939  0.48515762    -0.15600
F478        F  0.33299372  0.45220746  0.60210219    -0.14100
F479        F  0.27900294  0.40209198  0.57500609    -0.14100
F480        F  0.20975610  0.00662023  0.46718049    -0.15500
C481        C  0.52887276  0.41975200  0.77330026     0.14500
C482        C  0.56004186  0.43824010  0.79063999     0.01500
C483        C  0.57869725  0.44635242  0.77030341     0.16500
C484        C  0.56702412  0.43507828  0.73342529     0.25900
C485        C  0.53632325  0.41509956  0.71600617    -0.40500
C486        C  0.51708335  0.40814520  0.73633312     0.32900
C487        C  0.57407987  0.44830864  0.83025884     0.01500
F488        F  0.60847867  0.46522955  0.78636086    -0.12800
F489        F  0.48709452  0.38962983  0.72080555    -0.13300
C490        C  0.60356626  0.43042798  0.85501995     0.16500
C491        C  0.61987390  0.44320434  0.89149690     0.25900
C492        C  0.60714088  0.47454118  0.90389303    -0.40400
C493        C  0.57624965  0.49085012  0.87939118     0.32800
C494        C  0.55994730  0.47779209  0.84290503     0.14500
F495        F  0.61708927  0.40114172  0.84344381    -0.12800
F496        F  0.56263461  0.52088001  0.88983833    -0.13300
F497        F  0.64854671  0.42528372  0.91435903    -0.15600
F498        F  0.53139423  0.49542417  0.81931139    -0.14100
F499        F  0.51032579  0.41198833  0.79249471    -0.14100
F500        F  0.58618176  0.44348830  0.71508199    -0.15500
C501        C  0.45446287  0.32565269  0.38360663     0.14500
C502        C  0.44594748  0.28722105  0.37447320     0.01500
C503        C  0.44731903  0.26183162  0.40228125     0.16500
C504        C  0.45665780  0.27480502  0.43852695     0.25900
C505        C  0.46437657  0.31354636  0.44750056    -0.40500
C506        C  0.46345271  0.33874094  0.41969182     0.32900
C507        C  0.43416399  0.27405394  0.33564602     0.01500
F508        F  0.43845923  0.22471543  0.39404239    -0.12800
F509        F  0.47195285  0.37597538  0.42759551    -0.13300
C510        C  0.45112701  0.24482390  0.32621204     0.16500
C511        C  0.43860896  0.23090718  0.28992102     0.25900
C512        C  0.40862501  0.24574708  0.26245696    -0.40400
C513        C  0.39252795  0.27613261  0.27173558     0.32800
C514        C  0.40513735  0.29006370  0.30793756     0.14500
F515        F  0.47951475  0.22926480  0.35235413    -0.12800
F516        F  0.36416424  0.29203045  0.24584349    -0.13300
F517        F  0.45484063  0.20148453  0.28228937    -0.15600
F518        F  0.38811779  0.31818006  0.31629630    -0.14100
F519        F  0.45427347  0.35050297  0.35750939    -0.14100
F520        F  0.45692490  0.24973576  0.46450549    -0.15500
C521        C  0.43000442  0.20258402  0.64727502     0.14500
C522        C  0.43656067  0.16741689  0.63475498     0.01500
C523        C  0.45733649  0.16637542  0.61588833     0.16500
C524        C  0.47023913  0.20021813  0.60828360     0.25900
C525        C  0.46256394  0.23588556  0.61947096    -0.40500
C526        C  0.44284833  0.23638618  0.63987084     0.32900
C527        C  0.42034401  0.13233779  0.64023373     0.01500
F528        F  0.46416115  0.13266699  0.60366486    -0.12800
F529        F  0.43539891  0.26960262  0.65235853    -0.13300
C530        C  0.38509614  0.12974192  0.62473178     0.16500
C531        C  0.36921722  0.09870038  0.63253574     0.25900
C532        C  0.38834976  0.06946197  0.65643836    -0.40400
C533        C  0.42379319  0.07118994  0.67033889     0.32800
C534        C  0.43959997  0.10235781  0.66228751     0.14500
F535        F  0.36592869  0.15790271  0.60251614    -0.12800
F536        F  0.44328745  0.04302081  0.69217844    -0.13300
F537        F  0.33504959  0.09845216  0.61789774    -0.15600
F538        F  0.47374374  0.10404562  0.67730970    -0.14100
F539        F  0.41082906  0.20419875  0.66659592    -0.14100
F540        F  0.48970305  0.19791919  0.58935737    -0.15500
C541        C  0.55876810  0.05656438  0.56140361     0.14500
C542        C  0.55304386  0.06351237  0.52459122     0.01500
C543        C  0.53574420  0.03616088  0.49740265     0.16500
C544        C  0.52434758  0.50376072  0.50674471     0.25900
C545        C  0.53000630  0.49630975  0.54352743    -0.40500
C546        C  0.54821078  0.02231716  0.57108507     0.32900
C547        C  0.56832918  0.09710846  0.51512894     0.01500
F548        F  0.53091570  0.04170844  0.46185691    -0.12800
F549        F  0.55071813  0.51859958  0.60620290    -0.13300
C550        C  0.60345221  0.09988578  0.52923049     0.16500
C551        C  0.61852868  0.12888939  0.51760583     0.25900
C552        C  0.59870465  0.15598088  0.49119420    -0.40400
C553        C  0.56333950  0.15428820  0.47866571     0.32800
C554        C  0.54835775  0.12496277  0.49040451     0.14500
F555        F  0.62329457  0.07318135  0.55302274    -0.12800
F556        F  0.54307723  0.18051869  0.45461726    -0.13300
F557        F  0.65265620  0.12913489  0.53136413    -0.15600
F558        F  0.51429724  0.12345430  0.47729514    -0.14100
F559        F  0.57508757  0.08279091  0.58806551    -0.14100
F560        F  0.51012466  0.47689708  0.48010109    -0.15500
C561        C  0.73691922  0.25447106  0.67057416     0.14500
C562        C  0.72005971  0.28000242  0.64180656     0.01500
C563        C  0.73759630  0.29769033  0.62376306     0.16500
C564        C  0.77225650  0.29204603  0.63604958     0.25900
C565        C  0.79005812  0.26849721  0.66684254    -0.40500
C566        C  0.77148139  0.24832966  0.68274490     0.32900
C567        C  0.68505642  0.29110247  0.63302215     0.01500
F568        F  0.72143605  0.32217446  0.59551660    -0.12800
F569        F  0.78668367  0.22346565  0.71085940    -0.13300
C570        C  0.67849398  0.31611436  0.65672000     0.16500
C571        C  0.64569893  0.32854417  0.64793043     0.25900
C572        C  0.61882582  0.31573066  0.61542075    -0.40400
C573        C  0.62545590  0.29001534  0.59205893     0.32800
C574        C  0.65842158  0.27804738  0.60070103     0.14500
F575        F  0.70405855  0.32901230  0.68811654    -0.12800
F576        F  0.60021850  0.27742144  0.56026718    -0.13300
F577        F  0.64021006  0.35272407  0.67149160    -0.15600
F578        F  0.66441947  0.25387714  0.57749949    -0.14100
F579        F  0.72002235  0.23641429  0.68770840    -0.14100
F580        F  0.78835720  0.31112098  0.61864581    -0.15500
C581        C  0.89348412  0.20749835  0.82797354     0.14500
C582        C  0.92851626  0.20222927  0.84417762     0.01500
C583        C  0.94725971  0.21362758  0.82470447     0.16500
C584        C  0.93119425  0.22989606  0.78952103     0.25900
C585        C  0.89591530  0.23499519  0.77299189    -0.40500
C586        C  0.87735049  0.22351317  0.79288879     0.32900
C587        C  0.94511394  0.18464979  0.88130393     0.01500
F588        F  0.98111063  0.20829670  0.83946661    -0.12800
F589        F  0.84351077  0.22848112  0.77901891    -0.13300
C590        C  0.93437488  0.14889478  0.88791286     0.16500
C591        C  0.94790822  0.13333788  0.92336336     0.25900
C592        C  0.97280913  0.15313873  0.95326160    -0.40400
C593        C  0.98437330  0.18848854  0.94622911     0.32800
C594        C  0.97053565  0.20409397  0.91065053     0.14500
F595        F  0.91039951  0.12903105  0.85991934    -0.12800
F596        F  0.00867089  0.20844995  0.97378756    -0.13300
F597        F  0.93585692  0.09916570  0.92830134    -0.15600
F598        F  0.98108559  0.23895249  0.90518078    -0.14100
F599        F  0.87479375  0.19779557  0.84654367    -0.14100
F600        F  0.95026350  0.24005272  0.77155600    -0.15500
C601        C  0.89824486  0.35480771  0.62165809     0.14500
C602        C  0.92819408  0.37276329  0.64558591     0.01500
C603        C  0.94401615  0.36072993  0.68253217     0.16500
C604        C  0.92910368  0.33296914  0.69595029     0.25900
C605        C  0.89801515  0.31642079  0.67252375    -0.40500
C606        C  0.88339107  0.32682121  0.63488874     0.32900
C607        C  0.94083156  0.40672078  0.63316387     0.01500
F608        F  0.97345137  0.37692813  0.70604414    -0.12800
F609        F  0.85417192  0.31064320  0.61086447    -0.13300
C610        C  0.94369684  0.44165098  0.65151490     0.16500
C611        C  0.95372013  0.47449909  0.63924329     0.25900
C612        C  0.96081240  0.47347333  0.60785510    -0.40400
C613        C  0.95840448  0.43823437  0.58971757     0.32800
C614        C  0.94847354  0.40519308  0.60228092     0.14500
F615        F  0.93570778  0.44429819  0.68085622    -0.12800
F616        F  0.96485550  0.43578299  0.55933883    -0.13300
F617        F  0.95826322  0.00478401  0.65806451    -0.15600
F618        F  0.94628542  0.37169096  0.58426463    -0.14100
F619        F  0.88225585  0.36592678  0.58587858    -0.14100
F620        F  0.94429066  0.32404528  0.73237428    -0.15500
C621        C  0.88086692  0.74876962  0.73368755     0.82100
N622        N  0.84662852  0.74865560  0.71679642    -0.76200
C623        C  0.82958748  0.76792467  0.68485533     0.84500
N624        N  0.84733902  0.78782159  0.66988718    -0.76200
C625        C  0.88152268  0.78853885  0.68617187     0.84600
N626        N  0.89811585  0.76912461  0.71822719    -0.77900
Zn627      Zn  0.47391281  0.85850850  0.61258051     1.49700
Zn628      Zn  0.53980599  0.89332056  0.61089323     1.49400
Zn629      Zn  0.51028945  0.81315563  0.57025313     1.49100
Zn630      Zn  0.47192217  0.89182142  0.53650776     1.49500
O631        O  0.49897695  0.86419001  0.58229997    -1.82300
O632        O  0.49719831  0.88253425  0.66290919    -0.72900
O633        O  0.58091731  0.86217129  0.61848665    -0.72700
O634        O  0.49150906  0.77128454  0.59128007    -0.72200
O635        O  0.54280229  0.90756453  0.66113636    -0.72900
O636        O  0.46571899  0.80337019  0.61976241    -0.72500
O637        O  0.56075180  0.80680918  0.59077872    -0.73100
O638        O  0.46584819  0.85993978  0.49179136    -0.72500
O639        O  0.54135096  0.94240474  0.58530594    -0.73200
O640        O  0.49155312  0.80519229  0.51483782    -0.72600
O641        O  0.49480896  0.94102766  0.53300510    -0.73100
O642        O  0.42592073  0.90539663  0.53446550    -0.73000
O643        O  0.42936576  0.88401263  0.58833299    -0.72800
C644        C  0.52439714  0.90141679  0.67818605     0.79000
C645        C  0.58548674  0.82860066  0.60914833     0.79500
C646        C  0.47406946  0.77186385  0.61005859     0.78400
C647        C  0.47487828  0.82644237  0.48732763     0.78800
C648        C  0.52199198  0.95738261  0.55465217     0.80000
C649        C  0.41335811  0.90104428  0.55784999     0.79000
C650        C  0.11984355  0.97410549  0.44467205     0.82100
N651        N  0.10388349  0.94860860  0.45741921    -0.76200
C652        C  0.12144489  0.92845446  0.48873025     0.84500
N653        N  0.15522689  0.93364745  0.50689934    -0.76200
C654        C  0.17164642  0.95874996  0.49452612     0.84600
N655        N  0.15365017  0.97859275  0.46331684    -0.77900
C656        C  0.61071599  0.72607024  0.42654764     0.82100
N657        N  0.64483802  0.72590808  0.44015624    -0.76200
C658        C  0.66359071  0.70548246  0.47067395     0.84500
N659        N  0.64790159  0.68488527  0.48751123    -0.76200
C660        C  0.61374658  0.68420286  0.47421528     0.84600
N661        N  0.59521318  0.70469655  0.44329486    -0.77900
Zn662      Zn  0.00127463  0.55020314  0.54926185     1.49700
Zn663      Zn  0.96953503  0.59631346  0.59749033     1.49400
Zn664      Zn  0.03604551  0.62558780  0.59377835     1.49100
Zn665      Zn  0.96595626  0.63249031  0.52259275     1.49500
O666        O  0.99301921  0.60092394  0.56550564    -1.82300
O667        O  0.98373579  0.50803080  0.57172022    -0.72900
O668        O  0.99530709  0.62092329  0.64782436    -0.72700
O669        O  0.07441613  0.59434758  0.59394127    -0.72200
O670        O  0.96366523  0.54100299  0.60566454    -0.72900
O671        O  0.05132106  0.54113365  0.56383507    -0.72500
O672        O  0.04339460  0.63720094  0.64603945    -0.73100
O673        O  0.99037047  0.68105390  0.52145326    -0.72500
O674        O  0.92328197  0.62013478  0.57420889    -0.73200
O675        O  0.03856812  0.67533179  0.57130377    -0.72600
O676        O  0.92099296  0.64658585  0.52276713    -0.73100
O677        O  0.95699442  0.60416613  0.47533436    -0.73000
O678        O  0.97896653  0.54680170  0.49338504    -0.72800
C679        C  0.96991266  0.50927518  0.59422827     0.79000
C680        C  0.02477011  0.63518242  0.66334268     0.79500
C681        C  0.07711400  0.56198421  0.58094581     0.78400
C682        C  0.01923009  0.69384259  0.54300924     0.78800
C683        C  0.90755006  0.63926766  0.54485572     0.80000
C684        C  0.96335149  0.57060010  0.46775682     0.79000
C685        C  0.37241788  0.99667467  0.71521190     0.82100
N686        N  0.38937623  0.52081621  0.70297177    -0.76200
C687        C  0.37218643  0.53890537  0.67022308     0.84500
N688        N  0.33842995  0.53319361  0.65201893    -0.76200
C689        C  0.32186607  0.50980366  0.66583526     0.84600
N690        N  0.33871040  0.99135143  0.69600934    -0.77900
C691        C  0.87499618  0.97244279  0.20489365     0.82100
N692        N  0.84123825  0.97354445  0.18423970    -0.76200
C693        C  0.82634544  0.95168188  0.15354859     0.84500
N694        N  0.84566169  0.92820601  0.14338597    -0.76200
C695        C  0.87955783  0.92680726  0.16334776     0.84600
N696        N  0.89400859  0.94869604  0.19433687    -0.77900
Zn697      Zn  0.51055331  0.91040425  0.05821909     1.49700
Zn698      Zn  0.47686819  0.82922756  0.02860547     1.49400
Zn699      Zn  0.54243825  0.83477631  0.10480755     1.49100
Zn700      Zn  0.47350949  0.86746153  0.10086246     1.49500
O701        O  0.50071200  0.86039740  0.07298331    -1.82300
O702        O  0.48965650  0.91615243  0.00292481    -0.72900
O703        O  0.50488375  0.78350257  0.02750003    -0.72700
O704        O  0.58225627  0.86651068  0.10991308    -0.72200
O705        O  0.46626846  0.85991767  0.98182089    -0.72900
O706        O  0.56036274  0.91765795  0.07557026    -0.72500
O707        O  0.54785195  0.78486934  0.08284153    -0.73100
O708        O  0.49702510  0.84807639  0.15311198    -0.72500
O709        O  0.43324865  0.80939263  0.02837440    -0.73200
O710        O  0.54480888  0.82453198  0.15553671    -0.72600
O711        O  0.43083319  0.83706631  0.07745126    -0.73100
O712        O  0.46315365  0.92327894  0.10431925    -0.73000
O713        O  0.49269362  0.95308938  0.07889452    -0.72800
C714        C  0.47307174  0.89397869  0.97609572     0.79000
C715        C  0.53190345  0.76901887  0.05152999     0.79500
C716        C  0.58573923  0.89797257  0.09608910     0.78400
C717        C  0.52502322  0.83136246  0.17082256     0.78800
C718        C  0.41845143  0.81497313  0.04952819     0.80000
C719        C  0.47357036  0.95403733  0.09567977     0.79000
C720        C  0.12426628  0.74242316  0.92284499     0.82100
N721        N  0.15832827  0.73881353  0.94094594    -0.76200
C722        C  0.17599783  0.75831350  0.97275650     0.84500
N723        N  0.15915217  0.78186720  0.98612918    -0.76200
C724        C  0.12526037  0.78599240  0.96854080     0.84600
N725        N  0.10786258  0.76628505  0.93677142    -0.77900
C726        C  0.62656746  0.99416159  0.94062506     0.82100
N727        N  0.66049178  0.98831833  0.95708550    -0.76200
C728        C  0.68038918  0.00746429  0.98837908     0.84500
N729        N  0.66599383  0.53111904  0.00301168    -0.76200
C730        C  0.63229941  0.53731757  0.98665479     0.84600
N731        N  0.61318600  0.51779664  0.95539611    -0.77900
C732        C  0.39030607  0.72727407  0.22642517     0.82100
N733        N  0.35613649  0.72523960  0.20938319    -0.76200
C734        C  0.34031778  0.70523307  0.17750789     0.84500
N735        N  0.35913563  0.68710946  0.16265736    -0.76200
C736        C  0.39328465  0.68871377  0.17921025     0.84600
N737        N  0.40877166  0.70839558  0.21143266    -0.77900
Zn738      Zn  0.05107832  0.56931920  0.11337927     1.49700
Zn739      Zn  0.98287047  0.57142516  0.03927486     1.49400
Zn740      Zn  0.98446371  0.60580461  0.11411119     1.49100
Zn741      Zn  0.02323734  0.64928358  0.07304782     1.49500
O742        O  0.01050050  0.59902086  0.08491281    -1.82300
O743        O  0.05129399  0.51983174  0.08728486    -0.72900
O744        O  0.93706665  0.55811156  0.03691966    -0.72700
O745        O  0.00848060  0.58355483  0.16495915    -0.72200
O746        O  0.00465342  0.52172815  0.03538961    -0.72900
O747        O  0.05366648  0.55618534  0.16375313    -0.72500
O748        O  0.93971601  0.57892150  0.09067853    -0.73100
O749        O  0.00354565  0.69225833  0.09219930    -0.72500
O750        O  0.97599400  0.60319862  0.99473600    -0.73200
O751        O  0.97536415  0.66158052  0.11873680    -0.72600
O752        O  0.00468893  0.65635194  0.01765831    -0.73100
O753        O  0.07407648  0.65469541  0.09405691    -0.73000
O754        O  0.09321673  0.59889219  0.12062650    -0.72800
C755        C  0.03156596  0.50480937  0.05667412     0.79000
C756        C  0.92406299  0.56193980  0.05991344     0.79500
C757        C  0.03523650  0.56394649  0.18050962     0.78400
C758        C  0.98438807  0.69262394  0.10902353     0.78800
C759        C  0.98602415  0.63602355  0.99011717     0.80000
C760        C  0.09852660  0.63227861  0.11167273     0.79000
C761        C  0.25646211  0.65338513  0.13643999     0.14500
C762        C  0.23566779  0.67852395  0.14482090     0.01500
C763        C  0.24858557  0.71400069  0.16098294     0.16500
C764        C  0.28221161  0.72356366  0.17002740     0.25900
C765        C  0.30355056  0.69780438  0.16295968    -0.40500
C766        C  0.28997710  0.66294803  0.14515666     0.32900
C767        C  0.20067838  0.66739089  0.13719216     0.01500
F768        F  0.22893344  0.73882911  0.16926197    -0.12800
F769        F  0.30945871  0.63709674  0.13777164    -0.13300
C770        C  0.19451540  0.63594808  0.15517720     0.16500
C771        C  0.16147043  0.62486408  0.14743520     0.25900
C772        C  0.13377692  0.64499604  0.12131405    -0.40400
C773        C  0.14024523  0.67688717  0.10374562     0.32800
C774        C  0.17332610  0.68789753  0.11166314     0.14500
F775        F  0.22061474  0.61616888  0.18060754    -0.12800
F776        F  0.11461861  0.69698687  0.07807497    -0.13300
F777        F  0.15673998  0.59459139  0.16584774    -0.15600
F778        F  0.17869345  0.71807390  0.09359445    -0.14100
F779        F  0.24437342  0.61921978  0.12019183    -0.14100
F780        F  0.29396827  0.75787404  0.18611124    -0.15500
C781        C  0.77292404  0.52992771  0.04609208     0.14500
C782        C  0.78867363  0.51120475  0.02644253     0.01500
C783        C  0.76959201  0.48627573  0.99758166     0.16500
C784        C  0.73484427  0.48241331  0.98668484     0.25900
C785        C  0.71843006  0.50347101  0.00458989    -0.40500
C786        C  0.73840191  0.52575025  0.03569934     0.32900
C787        C  0.82419560  0.52030516  0.03432739     0.01500
F788        F  0.78448944  0.46640266  0.97922920    -0.12800
F789        F  0.72454307  0.54509414  0.05540140    -0.13300
C790        C  0.84962401  0.51763473  0.07044635     0.16500
C791        C  0.88214707  0.53089815  0.07870134     0.25900
C792        C  0.89005695  0.54641376  0.05082051    -0.40400
C793        C  0.86498482  0.54765373  0.01439244     0.32800
C794        C  0.83229851  0.53501141  0.00628126     0.14500
F795        F  0.84227380  0.00200985  0.09707681    -0.12800
F796        F  0.87162766  0.56297037  0.98694851    -0.13300
F797        F  0.90598747  0.52833426  0.11397432    -0.15600
F798        F  0.80813450  0.53896428  0.97132766    -0.14100
F799        F  0.79056198  0.55437438  0.07401356    -0.14100
F800        F  0.71732108  0.45911897  0.95770625    -0.15500
C801        C  0.04041276  0.92925651  0.99347935     0.18500
C802        C  0.06195830  0.90327579  0.01920222     0.01500
C803        C  0.07225134  0.91007091  0.05705818     0.16500
C804        C  0.06198547  0.94313679  0.06917710     0.25900
C805        C  0.04123110  0.97003658  0.04351035    -0.40500
C806        C  0.03001630  0.96231940  0.00544906     0.32900
C807        C  0.07764780  0.87234075  0.00677977     0.01500
F808        F  0.09317800  0.88519860  0.08229111    -0.12800
F809        F  0.99694214  0.47300109  0.98352325    -0.13300
C810        C  0.10962718  0.87838029  0.00774823     0.16500
C811        C  0.12492381  0.85021146  0.99537072     0.25900
C812        C  0.10850447  0.81525631  0.98174859    -0.40400
C813        C  0.07627605  0.80920616  0.98062620     0.32800
C814        C  0.06095451  0.83763629  0.99317889     0.14500
F815        F  0.12579212  0.91207562  0.02009463    -0.12800
F816        F  0.05999835  0.77561517  0.96813119    -0.13300
F817        F  0.15535113  0.85782079  0.99543994    -0.15600
F818        F  0.03001893  0.83131328  0.99226205    -0.14100
F819        F  0.03090073  0.92354238  0.95677451    -0.14100
F820        F  0.07265967  0.94896636  0.10603453    -0.15500
C821        C  0.26661392  0.79032284  0.02623734     0.14500
C822        C  0.28434426  0.76263691  0.01611884     0.01500
C823        C  0.26675353  0.73143375  0.99448111     0.16500
C824        C  0.23166882  0.72897697  0.98160189     0.25900
C825        C  0.21352977  0.75780075  0.99016860    -0.40500
C826        C  0.23173941  0.78790405  0.01367187     0.32900
C827        C  0.32046251  0.76889583  0.02531025     0.01500
F828        F  0.28352558  0.70372050  0.98524529    -0.12800
F829        F  0.21587769  0.81646501  0.02305953    -0.13300
C830        C  0.34360143  0.77483573  0.06211084     0.16500
C831        C  0.37597297  0.78839168  0.07013191     0.25900
C832        C  0.38586156  0.79599723  0.04143644    -0.40400
C833        C  0.36347960  0.78725341  0.00483948     0.32800
C834        C  0.33099338  0.77406100  0.99685088     0.14500
F835        F  0.33439087  0.76877908  0.09019806    -0.12800
F836        F  0.37215720  0.79388287  0.97646658    -0.13300
F837        F  0.39743691  0.79467672  0.10596880    -0.15600
F838        F  0.30903322  0.76895051  0.96101917    -0.14100
F839        F  0.28285799  0.82120865  0.04651280    -0.14100
F840        F  0.21553112  0.69864434  0.96034010    -0.15500
C841        C  0.57882464  0.67528095  0.06344713     0.14500
C842        C  0.57263794  0.66635530  0.02688311     0.01500
C843        C  0.55289733  0.69097309  0.99833391     0.16500
C844        C  0.53934026  0.72416893  0.00621898     0.25900
C845        C  0.54539305  0.73329517  0.04291712    -0.40500
C846        C  0.56533869  0.70842983  0.07146438     0.32900
C847        C  0.58809838  0.63226083  0.01865425     0.01500
F848        F  0.54762655  0.68337142  0.96292407    -0.12800
F849        F  0.57153852  0.71593308  0.10715358    -0.13300
C850        C  0.56861205  0.59988661  0.00239824     0.16500
C851        C  0.58314596  0.56832836  0.99308073     0.25900
C852        C  0.61743614  0.56883294  0.99977497    -0.40400
C853        C  0.63699214  0.60116405  0.01695636     0.32800
C854        C  0.62240041  0.63250571  0.02627450     0.14500
F855        F  0.53547730  0.59898048  0.99544863    -0.12800
F856        F  0.66990253  0.60344174  0.02313214    -0.13300
F857        F  0.56370003  0.53732743  0.97759387    -0.15600
F858        F  0.64152774  0.66376586  0.04160426    -0.14100
F859        F  0.59799466  0.65180614  0.09138445    -0.14100
F860        F  0.52142771  0.74808862  0.97810052    -0.15500
C861        C  0.45142630  0.60949539  0.17921512     0.14500
C862        C  0.43794716  0.59988268  0.14154387     0.01500
C863        C  0.41378142  0.62389365  0.11580379     0.16500
C864        C  0.40113173  0.65513793  0.12791346     0.25900
C865        C  0.41260119  0.66287806  0.16592698    -0.40500
C866        C  0.43902909  0.64084116  0.19133194     0.32900
C867        C  0.44666344  0.56292547  0.12973974     0.01500
F868        F  0.40073640  0.61554518  0.07917712    -0.12800
F869        F  0.45085765  0.64740549  0.22818411    -0.13300
C870        C  0.43903111  0.52876766  0.14285121     0.16500
C871        C  0.44619512  0.99345014  0.12848856     0.25900
C872        C  0.46373573  0.99159042  0.10584068    -0.40400
C873        C  0.47033724  0.52621079  0.09453693     0.32800
C874        C  0.46212511  0.56139325  0.10530270     0.14500
F875        F  0.42331418  0.52951680  0.16583590    -0.12800
F876        F  0.48535880  0.52613351  0.07089545    -0.13300
F877        F  0.43711860  0.96129051  0.14085591    -0.15600
F878        F  0.46981859  0.59405021  0.09235749    -0.14100
F879        F  0.47543609  0.58725340  0.20450182    -0.14100
F880        F  0.37656717  0.67681317  0.10260948    -0.15500
C881        C  0.68065085  0.90721865  0.13881494     0.14500
C882        C  0.68571047  0.93068199  0.11317802     0.01500
C883        C  0.65787284  0.94547354  0.08318831     0.16500
C884        C  0.62521687  0.93579396  0.07811741     0.25900
C885        C  0.62001475  0.91116062  0.10313866    -0.40500
C886        C  0.64813876  0.89749160  0.13388857     0.32900
C887        C  0.72023419  0.93802564  0.11724967     0.01500
F888        F  0.66237855  0.96799153  0.05802911    -0.12800
F889        F  0.64427667  0.87452629  0.15917795    -0.13300
C890        C  0.73978900  0.90761396  0.11431733     0.16500
C891        C  0.77394704  0.91278084  0.12332265     0.25900
C892        C  0.78922105  0.94850633  0.13589688    -0.40400
C893        C  0.76898230  0.97958953  0.13643932     0.32800
C894        C  0.73465429  0.97436258  0.12704489     0.14500
F895        F  0.72604237  0.87237163  0.10439461    -0.12800
F896        F  0.78367864  0.51540707  0.14920691    -0.13300
F897        F  0.79247595  0.88198606  0.12259784    -0.15600
F898        F  0.71597167  0.00415850  0.12973042    -0.14100
F899        F  0.70736304  0.89341891  0.16853367    -0.14100
F900        F  0.59884888  0.94908139  0.04777103    -0.15500
C901        C  0.94343101  0.84921219  0.17406137     0.14500
C902        C  0.93186985  0.83520422  0.13780512     0.01500
C903        C  0.90505310  0.85371268  0.10936966     0.16500
C904        C  0.88893508  0.88466066  0.11738023     0.25900
C905        C  0.89955083  0.89779559  0.15403349    -0.40500
C906        C  0.92758331  0.88028841  0.18214156     0.32900
C907        C  0.94576994  0.79922403  0.13044371     0.01500
F908        F  0.89339377  0.84059519  0.07411256    -0.12800
F909        F  0.93844611  0.89155217  0.21789002    -0.13300
C910        C  0.93996872  0.76488707  0.14470514     0.16500
C911        C  0.95269232  0.73052362  0.13806721     0.25900
C912        C  0.97174308  0.72964463  0.11693957    -0.40400
C913        C  0.97754577  0.76441279  0.10269516     0.32800
C914        C  0.96453253  0.79878555  0.10929879     0.14500
F915        F  0.92132579  0.76457993  0.16464667    -0.12800
F916        F  0.99547149  0.76531392  0.08200096    -0.13300
F917        F  0.94609343  0.69813833  0.15236576    -0.15600
F918        F  0.97048182  0.83174391  0.09530417    -0.14100
F919        F  0.96947803  0.83187659  0.20191808    -0.14100
F920        F  0.86246657  0.90121988  0.08934921    -0.15500
C921        C  0.44113049  0.89625033  0.87141696     0.14500
C922        C  0.43724497  0.93557357  0.86410957     0.01500
C923        C  0.44643946  0.96121527  0.89392062     0.16500
C924        C  0.45858860  0.94779335  0.93024623     0.25900
C925        C  0.46143372  0.90828810  0.93758803    -0.40500
C926        C  0.45289609  0.88271966  0.90767064     0.32900
C927        C  0.42190303  0.94967254  0.82539210     0.01500
F928        F  0.44243771  0.99933462  0.88781161    -0.12800
F929        F  0.45626702  0.84452190  0.91340909    -0.13300
C930        C  0.38995556  0.93664642  0.80077823     0.16500
C931        C  0.37454845  0.95079082  0.76477386     0.25900
C932        C  0.39048190  0.97897530  0.75248114    -0.40400
C933        C  0.42296015  0.99139512  0.77710076     0.32800
C934        C  0.43843226  0.97683728  0.81307994     0.14500
F935        F  0.37299611  0.91101775  0.81201920    -0.12800
F936        F  0.43961115  0.01838156  0.76696577    -0.13300
F937        F  0.34373065  0.93693338  0.74222535    -0.15600
F938        F  0.46961431  0.98944500  0.83600219    -0.14100
F939        F  0.43358776  0.87083451  0.84331426    -0.14100
F940        F  0.46648207  0.97361517  0.95808139    -0.15500
C941        C  0.16912093  0.56487342  0.59826899     0.14500
C942        C  0.17768124  0.52612374  0.60196196     0.01500
C943        C  0.15249867  0.49869401  0.59578299     0.16500
C944        C  0.11931608  0.51004222  0.58743865     0.25900
C945        C  0.11109454  0.54908281  0.58587829    -0.40500
C946        C  0.13625062  0.57629486  0.59039309     0.32900
C947        C  0.21357537  0.51526138  0.61623669     0.01500
F948        F  0.15878808  0.96114561  0.59086179    -0.12800
F949        F  0.12917288  0.61416878  0.58752558    -0.13300
C950        C  0.23113262  0.50601377  0.65368254     0.16500
C951        C  0.26618913  0.50233541  0.66943922     0.25900
C952        C  0.28444846  0.50783387  0.64792321    -0.40400
C953        C  0.26594532  0.01593752  0.60739053     0.32800
C954        C  0.23135693  0.51924726  0.59426893     0.14500
F955        F  0.21448639  0.50332371  0.67563901    -0.12800
F956        F  0.28251358  0.02166270  0.58571574    -0.13300
F957        F  0.28230040  0.49623368  0.70637804    -0.15600
F958        F  0.21445020  0.03115452  0.55611014    -0.14100
F959        F  0.19307932  0.59182391  0.60397796    -0.14100
F960        F  0.09443776  0.98300104  0.57572351    -0.15500
C961        C  0.02936903  0.66535180  0.75748084     0.14500
C962        C  0.06263804  0.67863272  0.77529709     0.01500
C963        C  0.08322679  0.67798410  0.75619942     0.16500
C964        C  0.07101620  0.66390008  0.72007919     0.25900
C965        C  0.03770094  0.65003105  0.70201175    -0.40500
C966        C  0.01699703  0.65110628  0.72127808     0.32900
C967        C  0.07624712  0.69296711  0.81389250     0.01500
F968        F  0.11522335  0.69158411  0.77244990    -0.12800
F969        F  0.98470072  0.63847501  0.70523514    -0.13300
C970        C  0.10442425  0.67537868  0.84141781     0.16500
C971        C  0.11915640  0.69051423  0.87718804     0.25900
C972        C  0.10605388  0.72373796  0.88623604    -0.40400
C973        C  0.07689821  0.74041890  0.85891103     0.32800
C974        C  0.06222462  0.72518748  0.82308892     0.14500
F975        F  0.11789094  0.64358551  0.83349599    -0.12800
F976        F  0.06354437  0.77267829  0.86613118    -0.13300
F977        F  0.14639508  0.67263065  0.90292116    -0.15600
F978        F  0.03527124  0.74304146  0.79687976    -0.14100
F979        F  0.00899954  0.66557290  0.77542459    -0.14100
F980        F  0.09207798  0.66394030  0.70297976    -0.15500
C981        C  0.93919225  0.50789260  0.29974317     0.14500
C982        C  0.91811448  0.52426987  0.31442604     0.01500
C983        C  0.88257078  0.02464916  0.29183082     0.16500
C984        C  0.86893810  0.00939942  0.25615448     0.25900
C985        C  0.89054093  0.49292854  0.24212063    -0.40500
C986        C  0.92564614  0.49242947  0.26400724     0.32900
C987        C  0.93178553  0.53720088  0.35352312     0.01500
F988        F  0.86132533  0.03782734  0.30610244    -0.12800
F989        F  0.94701501  0.47637781  0.25131501    -0.13300
C990        C  0.92460365  0.57388685  0.36251604     0.16500
C991        C  0.93469462  0.58473989  0.39941981     0.25900
C992        C  0.95273701  0.55923887  0.42837406    -0.40400
C993        C  0.96088684  0.52290406  0.41914270     0.32800
C994        C  0.95031837  0.51199481  0.38220365     0.14500
F995        F  0.90770103  0.59933602  0.33544577    -0.12800
F996        F  0.97884357  0.49749980  0.44575037    -0.13300
F997        F  0.92645289  0.62023226  0.40654088    -0.15600
F998        F  0.95724829  0.47613724  0.37449258    -0.14100
F999        F  0.97295828  0.50630114  0.32033691    -0.14100
F1000       F  0.83490078  0.00940724  0.23726206    -0.15500
C1001       C  0.81919378  0.64499455  0.54052880     0.14500
C1002       C  0.80568886  0.67655693  0.51734762     0.01500
C1003       C  0.82621830  0.69654367  0.50413188     0.16500
C1004       C  0.85931559  0.68465350  0.51316518     0.25900
C1005       C  0.87278621  0.65276976  0.53607807    -0.40500
C1006       C  0.85240743  0.63340976  0.55004093     0.32900
C1007       C  0.76977528  0.68731238  0.50560649     0.01500
F1008       F  0.81423627  0.72778580  0.48254681    -0.12800
F1009       F  0.86411482  0.60225087  0.57181783    -0.13300
C1010       C  0.75668090  0.69382760  0.53188836     0.16500
C1011       C  0.72222347  0.70061568  0.52059242     0.25900
C1012       C  0.70036997  0.70185859  0.48282011    -0.40400
C1013       C  0.71366962  0.69681384  0.45655272     0.32800
C1014       C  0.74793926  0.68922722  0.46782863     0.14500
F1015       F  0.77726786  0.69346734  0.56854279    -0.12800
F1016       F  0.69315772  0.69695034  0.41986093    -0.13300
F1017       F  0.71020651  0.70609341  0.54656463    -0.15600
F1018       F  0.75946909  0.68186574  0.44174283    -0.14100
F1019       F  0.79976743  0.62435206  0.55285576    -0.14100
F1020       F  0.87827217  0.70470765  0.49979831    -0.15500
C1021       C  0.52013386  0.80728328  0.26166697     0.14500
C1022       C  0.55278558  0.79378116  0.28283884     0.01500
C1023       C  0.57630248  0.79316458  0.26742894     0.16500
C1024       C  0.56743976  0.80571635  0.23137615     0.25900
C1025       C  0.53463732  0.81919763  0.20970220    -0.40500
C1026       C  0.51111925  0.82007873  0.22548723     0.32900
C1027       C  0.56292641  0.78007118  0.32106286     0.01500
F1028       F  0.60791839  0.77970358  0.28725624    -0.12800
F1029       F  0.47924998  0.83290462  0.20593212    -0.13300
C1030       C  0.54918886  0.74638775  0.32795928     0.16500
C1031       C  0.56316512  0.72988939  0.36319445     0.25900
C1032       C  0.59123581  0.74680952  0.39182415    -0.40400
C1033       C  0.60335977  0.78186702  0.38534348     0.32800
C1034       C  0.58926669  0.79837033  0.35032167     0.14500
F1035       F  0.52394871  0.72803151  0.29994405    -0.12800
F1036       F  0.62968359  0.79956458  0.41270704    -0.13300
F1037       F  0.55106238  0.69587135  0.36840291    -0.15600
F1038       F  0.60229544  0.83149414  0.34448755    -0.14100
F1039       F  0.49710186  0.80843687  0.27618828    -0.14100
F1040       F  0.59122113  0.80467717  0.21790274    -0.15500
C1041       C  0.10278195  0.53322593  0.35906893     0.14500
C1042       C  0.07536913  0.51447576  0.33150782     0.01500
C1043       C  0.06011262  0.98828402  0.34387679     0.16500
C1044       C  0.07263170  0.97583626  0.38055500     0.25900
C1045       C  0.10171168  0.48875177  0.40531955    -0.40500
C1046       C  0.11578846  0.52062118  0.39555263     0.32900
C1047       C  0.06437953  0.52546657  0.29235368     0.01500
F1048       F  0.03278460  0.97067834  0.31784441    -0.12800
F1049       F  0.14267571  0.53928505  0.42115209    -0.13300
C1050       C  0.08736432  0.52412911  0.27620914     0.16500
C1051       C  0.07792771  0.53635574  0.23992499     0.25900
C1052       C  0.04506657  0.54995413  0.21879313    -0.40400
C1053       C  0.02178155  0.55018856  0.23482157     0.32800
C1054       C  0.03144838  0.53821374  0.27126861     0.14500
F1055       F  0.11912433  0.51090937  0.29571082    -0.12800
F1056       F  0.98954492  0.56191148  0.21532246    -0.13300
F1057       F  0.10131317  0.53550948  0.22589010    -0.15600
F1058       F  0.00887208  0.54013022  0.28631413    -0.14100
F1059       F  0.11745319  0.56344247  0.35043716    -0.14100
F1060       F  0.05676612  0.94651132  0.38878081    -0.15500
C1061       C  0.10837326  0.83275040  0.52424745     0.14500
C1062       C  0.07362003  0.83299315  0.51427085     0.01500
C1063       C  0.05466670  0.86544459  0.49747688     0.16500
C1064       C  0.07028891  0.89718413  0.49020956     0.25900
C1065       C  0.10512858  0.89675575  0.49953243    -0.40500
C1066       C  0.12402586  0.86423048  0.51702416     0.32900
C1067       C  0.05746590  0.79901221  0.52137951     0.01500
F1068       F  0.02108339  0.86637505  0.48830482    -0.12800
F1069       F  0.15744679  0.86186523  0.52560110    -0.13300
C1070       C  0.06675304  0.78679714  0.55777305     0.16500
C1071       C  0.05373531  0.75300069  0.56473631     0.25900
C1072       C  0.03107081  0.73079310  0.53533310    -0.40400
C1073       C  0.02134185  0.74341180  0.49882062     0.32800
C1074       C  0.03454014  0.77729041  0.49192358     0.14500
F1075       F  0.08878258  0.80751479  0.58660360    -0.12800
F1076       F  0.00046686  0.72204332  0.46978839    -0.13300
F1077       F  0.06334912  0.74202368  0.60034024    -0.15600
F1078       F  0.02616752  0.78802550  0.45648209    -0.14100
F1079       F  0.12702638  0.80133657  0.53989431    -0.14100
F1080       F  0.05136741  0.92829480  0.47421401    -0.15500
C1081       C  0.26246244  0.92849776  0.54919591     0.14500
C1082       C  0.27856171  0.94796288  0.53041005     0.01500
C1083       C  0.26050247  0.97519264  0.50381439     0.16500
C1084       C  0.22622298  0.98076376  0.49393741     0.25900
C1085       C  0.20914139  0.95898317  0.51048055    -0.40500
C1086       C  0.22821060  0.93423618  0.53968023     0.32900
C1087       C  0.31357041  0.93838819  0.53704176     0.01500
F1088       F  0.27595251  0.99577797  0.48661651    -0.12800
F1089       F  0.21368423  0.91428803  0.55824196    -0.13300
C1090       C  0.32090759  0.92586424  0.50765929     0.16500
C1091       C  0.35365232  0.91500597  0.51404226     0.25900
C1092       C  0.37943700  0.91581823  0.55004144    -0.40400
C1093       C  0.37214359  0.92904191  0.57927349     0.32800
C1094       C  0.33955728  0.94039475  0.57278007     0.14500
F1095       F  0.29603475  0.92264007  0.47299159    -0.12800
F1096       F  0.39667158  0.93119676  0.61422965    -0.13300
F1097       F  0.35972498  0.90192866  0.48534569    -0.15600
F1098       F  0.33336223  0.95332257  0.60144089    -0.14100
F1099       F  0.27942415  0.90222181  0.57535087    -0.14100
F1100       F  0.20934835  0.50678373  0.46710632    -0.15500
C1101       C  0.52708503  0.92128641  0.77350117     0.14500
C1102       C  0.55821928  0.93982180  0.79099011     0.01500
C1103       C  0.57709143  0.94778921  0.77086849     0.16500
C1104       C  0.56574622  0.93621054  0.73411077     0.25900
C1105       C  0.53516594  0.91603263  0.71659207    -0.40500
C1106       C  0.51562244  0.90935457  0.73663935     0.32900
C1107       C  0.57216008  0.94989434  0.83060827     0.01500
F1108       F  0.60683730  0.96670948  0.78707306    -0.12800
F1109       F  0.48568201  0.89075811  0.72095973    -0.13300
C1110       C  0.60120130  0.93138070  0.85552065     0.16500
C1111       C  0.61782073  0.94435174  0.89190603     0.25900
C1112       C  0.60582346  0.97645959  0.90406601    -0.40400
C1113       C  0.57527844  0.99339173  0.87946783     0.32800
C1114       C  0.55869962  0.98019791  0.84304187     0.14500
F1115       F  0.61407905  0.90136224  0.84412528    -0.12800
F1116       F  0.56236796  0.02417450  0.88972908    -0.13300
F1117       F  0.64611563  0.92589263  0.91490958    -0.15600
F1118       F  0.53063728  0.99850144  0.81926791    -0.14100
F1119       F  0.50828524  0.91375346  0.79246048    -0.14100
F1120       F  0.58515403  0.94443811  0.71601645    -0.15500
C1121       C  0.45370508  0.82457626  0.38483395     0.14500
C1122       C  0.44601909  0.78595153  0.37599913     0.01500
C1123       C  0.44913954  0.76025779  0.40424196     0.16500
C1124       C  0.45914390  0.77317555  0.44061716     0.25900
C1125       C  0.46584339  0.81213774  0.44928887    -0.40500
C1126       C  0.46341248  0.83758797  0.42104941     0.32900
C1127       C  0.43333183  0.77288096  0.33707520     0.01500
F1128       F  0.44128452  0.72287305  0.39633082    -0.12800
F1129       F  0.47098152  0.87507061  0.42859101    -0.13300
C1130       C  0.45065179  0.74489604  0.32665106     0.16500
C1131       C  0.43763500  0.73135197  0.29022490     0.25900
C1132       C  0.40677311  0.74532252  0.26354808    -0.40400
C1133       C  0.39016468  0.77439986  0.27388344     0.32800
C1134       C  0.40328403  0.78794196  0.31024913     0.14500
F1135       F  0.48000273  0.73029958  0.35193252    -0.12800
F1136       F  0.36092962  0.78953311  0.24887667    -0.13300
F1137       F  0.45448850  0.70323004  0.28170141    -0.15600
F1138       F  0.38592086  0.81485692  0.31962579    -0.14100
F1139       F  0.45191510  0.84972159  0.35827973    -0.14100
F1140       F  0.46095913  0.74780300  0.46701515    -0.15500
C1141       C  0.42681512  0.70183298  0.64373448     0.14500
C1142       C  0.43645256  0.66656847  0.63452355     0.01500
C1143       C  0.46019751  0.66572083  0.61942146     0.16500
C1144       C  0.47312699  0.69976084  0.61226329     0.25900
C1145       C  0.46250354  0.73541794  0.62013055    -0.40500
C1146       C  0.43966557  0.73583551  0.63675447     0.32900
C1147       C  0.42083537  0.63104849  0.64004934     0.01500
F1148       F  0.47011862  0.63193217  0.61057172    -0.12800
F1149       F  0.42910529  0.76912842  0.64579755    -0.13300
C1150       C  0.38583602  0.62612880  0.62178965     0.16500
C1151       C  0.37016473  0.59513087  0.63000779     0.25900
C1152       C  0.38925980  0.56829408  0.65709128    -0.40400
C1153       C  0.42470140  0.57205175  0.67351917     0.32800
C1154       C  0.44026438  0.60318442  0.66511806     0.14500
F1155       F  0.36663053  0.65207569  0.59650750    -0.12800
F1156       F  0.44444785  0.54614014  0.69841353    -0.13300
F1157       F  0.33610468  0.59261914  0.61242085    -0.15600
F1158       F  0.47421574  0.60708453  0.68282427    -0.14100
F1159       F  0.40472749  0.70332652  0.65951748    -0.14100
F1160       F  0.49579810  0.69763319  0.59731493    -0.15500
C1161       C  0.55611267  0.55896226  0.56126414     0.14500
C1162       C  0.55142634  0.56581525  0.52474213     0.01500
C1163       C  0.53511850  0.53812642  0.49749722     0.16500
C1164       C  0.52494494  0.00198589  0.50698351     0.25900
C1165       C  0.53150806  0.99446948  0.54403229    -0.40500
C1166       C  0.54564358  0.52445870  0.57062535     0.32900
C1167       C  0.56661213  0.59976355  0.51561027     0.01500
F1168       F  0.53127363  0.54353610  0.46226002    -0.12800
F1169       F  0.55427357  0.01641946  0.60694813    -0.13300
C1170       C  0.60170580  0.60402661  0.53154960     0.16500
C1171       C  0.61687806  0.63268921  0.51959637     0.25900
C1172       C  0.59721274  0.65779783  0.49093112    -0.40400
C1173       C  0.56176339  0.65504775  0.47685770     0.32800
C1174       C  0.54669684  0.62615737  0.48898249     0.14500
F1175       F  0.62155623  0.57892398  0.55737452    -0.12800
F1176       F  0.54149655  0.67958848  0.45071275    -0.13300
F1177       F  0.65102673  0.63451340  0.53532832    -0.15600
F1178       F  0.51260468  0.62345537  0.47419241    -0.14100
F1179       F  0.57127705  0.58554336  0.58795204    -0.14100
F1180       F  0.50975531  0.97537529  0.48034043    -0.15500
C1181       C  0.73851986  0.75215565  0.66932919     0.14500
C1182       C  0.72232406  0.78232631  0.64561050     0.01500
C1183       C  0.74053067  0.80538690  0.63189116     0.16500
C1184       C  0.77503858  0.79961924  0.64314528     0.25900
C1185       C  0.79211680  0.77063619  0.66873537    -0.40500
C1186       C  0.77306235  0.74615116  0.68068320     0.32900
C1187       C  0.68711637  0.79191870  0.63742743     0.01500
F1188       F  0.72502906  0.83452760  0.60860600    -0.12800
F1189       F  0.78777697  0.71671110  0.70383248    -0.13300
C1190       C  0.68029520  0.81852027  0.65969224     0.16500
C1191       C  0.64722834  0.82999835  0.65087849     0.25900
C1192       C  0.62033716  0.81489101  0.61957990    -0.40400
C1193       C  0.62729025  0.78735961  0.59786658     0.32800
C1194       C  0.66049158  0.77612044  0.60669178     0.14500
F1195       F  0.70584214  0.83374956  0.68976881    -0.12800
F1196       F  0.60214797  0.77236390  0.56730125    -0.13300
F1197       F  0.64156183  0.85570734  0.67316030    -0.15600
F1198       F  0.66676772  0.75045280  0.58482016    -0.14100
F1199       F  0.72103670  0.72926203  0.68242532    -0.14100
F1200       F  0.79176242  0.82370488  0.63013232    -0.15500
C1201       C  0.89714119  0.68994091  0.81969443     0.14500
C1202       C  0.93155513  0.69642979  0.84128308     0.01500
C1203       C  0.94976731  0.71861005  0.82671119     0.16500
C1204       C  0.93369088  0.73486756  0.79155306     0.25900
C1205       C  0.89886114  0.72921484  0.77000818    -0.40500
C1206       C  0.88104553  0.70577671  0.78446848     0.32900
C1207       C  0.94805475  0.68062586  0.87922303     0.01500
F1208       F  0.98327560  0.72450854  0.84657289    -0.12800
F1209       F  0.84782975  0.69814714  0.76483687    -0.13300
C1210       C  0.94650419  0.64138572  0.88523543     0.16500
C1211       C  0.95967436  0.62676963  0.92110823     0.25900
C1212       C  0.97485370  0.65112252  0.95194910    -0.40400
C1213       C  0.97759532  0.69030811  0.94572621     0.32800
C1214       C  0.96413234  0.70487076  0.90976360     0.14500
F1215       F  0.93201735  0.61710257  0.85623433    -0.12800
F1216       F  0.99215258  0.71496893  0.97439087    -0.13300
F1217       F  0.95735389  0.58866997  0.92548238    -0.15600
F1218       F  0.96551078  0.74301720  0.90488293    -0.14100
F1219       F  0.87870824  0.66907728  0.83318770    -0.14100
F1220       F  0.95236164  0.75664363  0.77913626    -0.15500
C1221       C  0.89945629  0.85220165  0.61977188     0.14500
C1222       C  0.92946497  0.87024191  0.64349085     0.01500
C1223       C  0.94572375  0.85793648  0.68033795     0.16500
C1224       C  0.93107043  0.83005077  0.69393526     0.25900
C1225       C  0.89990053  0.81355875  0.67077303    -0.40500
C1226       C  0.88491349  0.82404364  0.63318942     0.32900
C1227       C  0.94165328  0.90460131  0.63108183     0.01500
F1228       F  0.97527279  0.87408296  0.70363210    -0.12800
F1229       F  0.85556210  0.80784997  0.60947671    -0.13300
C1230       C  0.94514548  0.93914905  0.65024390     0.16500
C1231       C  0.95482968  0.97233536  0.63813066     0.25900
C1232       C  0.96089377  0.97207989  0.60608701    -0.40400
C1233       C  0.95770826  0.93730002  0.58700508     0.32800
C1234       C  0.94819984  0.90388736  0.59944136     0.14500
F1235       F  0.93811871  0.94111417  0.68027778    -0.12800
F1236       F  0.96295849  0.93568259  0.55582611    -0.13300
F1237       F  0.95640735  0.50738256  0.65834929    -0.15600
F1238       F  0.94537695  0.87082521  0.58056620    -0.14100
F1239       F  0.88304959  0.86346355  0.58408328    -0.14100
F1240       F  0.94645117  0.82114430  0.73034122    -0.15500
loop_ 
_geom_bond_atom_site_label_1 
_geom_bond_atom_site_label_2 
_geom_bond_distance 
_geom_bond_site_symmetry_2 
_ccdc_geom_bond_type 
C1            N2   1.358       .  A
C1            N6   1.361       .  A
C1          C585   1.492       .  S
N2            C3   1.356       .  A
C3            N4   1.358       .  A
C3          C565   1.493       .  S
N4            C5   1.359       .  A
C5            N6   1.361       .  A
C5          C605   1.490       .  S
Zn7          O11   1.953       .  S
Zn7          O12   2.012       .  S
Zn7          O16   2.011       .  S
Zn7          O23   1.987       .  S
Zn8          O11   1.955       .  S
Zn8          O13   2.014       .  S
Zn8          O15   2.013       .  S
Zn8          O19   2.021       .  S
Zn9          O11   1.967       .  S
Zn9          O14   2.034       .  S
Zn9          O17   2.015       .  S
Zn9          O20   2.025       .  S
Zn10         O11   1.967       .  S
Zn10         O18   2.027       .  S
Zn10         O21   2.033       .  S
Zn10         O22   2.035       .  S
O12          C24   1.271       .  A
O13          C25   1.275       .  A
O14          C26   1.275       .  A
O15          C24   1.273       .  A
O16          C26   1.273       .  A
O17          C25   1.274       .  A
O18          C27   1.275       .  A
O19          C28   1.274       .  A
O20          C27   1.274       .  A
O21          C28   1.275       .  A
O22          C29   1.276       .  A
O23          C29   1.271       .  A
C24         C485   1.490       .  S
C25         C572   1.478       .  S
C26         C525   1.494       .  S
C27         C505   1.484       .  S
C28         C545   1.483       .  S
C29         C472   1.476       .  S
C30          N31   1.359       .  A
C30          N35   1.358       .  A
C30        C1045   1.485       .  S
N31          C32   1.359       .  A
C32          N33   1.357       .  A
C32         C445   1.479       .  S
N33          C34   1.356       .  A
C34          N35   1.356       .  A
C34         C465   1.490       .  S
C36          N37   1.358       .  A
C36          N41   1.363       .  A
C36         C412   1.480       .  S
N37          C38   1.354       .  A
C38          N39   1.354       .  A
C38         C392   1.476       .  S
N39          C40   1.360       .  A
C40          N41   1.365       .  A
C40         C552   1.495       .  S
Zn42         O46   1.975   1_455  S
Zn42         O47   2.040   1_455  S
Zn42         O51   2.039       .  S
Zn42         O58   2.027   1_455  S
Zn43         O46   1.954       .  S
Zn43         O48   2.039       .  S
Zn43         O50   2.006       .  S
Zn43         O54   2.020       .  S
Zn44         O46   1.943   1_455  S
Zn44         O49   2.000       .  S
Zn44         O52   2.015       .  S
Zn44         O55   1.986       .  S
Zn45         O46   1.966       .  S
Zn45         O53   2.017       .  S
Zn45         O56   2.026       .  S
Zn45         O57   2.016       .  S
O47          C59   1.277       .  A
O48          C60   1.275   1_655  A
O49          C61   1.272       .  A
O50          C59   1.274       .  A
O51          C61   1.275       .  A
O52          C60   1.273       .  A
O53          C62   1.273   1_655  A
O54          C63   1.274       .  A
O55          C62   1.270       .  A
O56          C63   1.275       .  A
O57          C64   1.274       .  A
O58          C64   1.275       .  A
C59        C1232   1.489   1_545  S
C60         C345   1.496       .  S
C61         C325   1.487       .  S
C62         C452   1.475       .  S
C63         C385   1.487       .  S
C64         C372   1.492       .  S
C65          N70   1.359       .  A
C65         N686   1.360       .  A
C65         C312   1.493       .  S
N66          C67   1.363       .  A
N66         C685   1.361   1_545  A
C67          N68   1.359       .  A
C67         C532   1.491       .  S
N68          C69   1.356       .  A
C69         N690   1.359   1_545  A
C69         C332   1.487       .  S
N70         C689   1.359       .  A
C71          N72   1.357       .  A
C71          N76   1.361       .  A
C71         C985   1.494       .  S
N72          C73   1.356       .  A
C73          N74   1.358       .  A
C73         C272   1.481       .  S
N74          C75   1.359       .  A
C75          N76   1.361       .  A
C75         C285   1.485       .  S
Zn77         O81   1.957       .  S
Zn77         O82   2.012       .  S
Zn77         O86   2.011       .  S
Zn77         O93   2.012       .  S
Zn78         O81   1.963       .  S
Zn78         O83   2.026       .  S
Zn78         O85   2.038   1_554  S
Zn78         O89   2.033       .  S
Zn79         O81   1.953       .  S
Zn79         O84   2.006       .  S
Zn79         O87   2.011       .  S
Zn79         O90   2.016       .  S
Zn80         O81   1.959       .  S
Zn80         O88   2.020       .  S
Zn80         O91   2.016       .  S
Zn80         O92   2.030       .  S
O82          C94   1.273   1_554  A
O83          C95   1.275       .  A
O84          C96   1.273       .  A
O85          C94   1.276       .  A
O86          C96   1.272       .  A
O87          C95   1.273       .  A
O88          C97   1.272       .  A
O89          C98   1.276       .  A
O90          C97   1.273       .  A
O91          C98   1.275       .  A
O92          C99   1.276       .  A
O93          C99   1.273       .  A
C94         C305   1.488       .  S
C95         C225   1.485       .  S
C96         C265   1.481       .  S
C97         C405   1.491       .  S
C98         C212   1.484       .  S
C99         C252   1.491       .  S
C100        N101   1.363       .  A
C100        N105   1.363       .  A
C100        C352   1.492       .  S
N101        C102   1.360       .  A
C102        N103   1.357       .  A
C102        C205   1.495       .  S
N103        C104   1.357       .  A
C104        N105   1.360       .  A
C104        C192   1.485       .  S
C106        N107   1.362       .  A
C106        N731   1.360       .  A
C106        C492   1.490       .  S
N107        C108   1.359       .  A
C108        N729   1.357   1_556  A
C108        C785   1.495   1_556  S
N109        C110   1.355   1_554  A
N109        C728   1.356   1_554  A
C110        N111   1.357       .  A
C110        C232   1.482   1_556  S
N111        C726   1.360   1_545  A
C112        N113   1.359       .  A
C112        N117   1.361       .  A
C112        C512   1.485       .  S
N113        C114   1.357       .  A
C114        N115   1.357       .  A
C114        C145   1.488       .  S
N115        C116   1.358       .  A
C116        N117   1.361       .  A
C116        C245   1.479       .  S
Zn118       O122   1.962       .  S
Zn118       O123   2.027       .  S
Zn118       O127   2.027       .  S
Zn118       O134   2.027       .  S
Zn119       O122   1.958   1_655  S
Zn119       O124   2.023       .  S
Zn119       O126   2.014   1_655  S
Zn119       O130   2.005   1_554  S
Zn120       O122   1.954   1_655  S
Zn120       O125   2.010   1_655  S
Zn120       O128   2.020       .  S
Zn120       O131   2.013       .  S
Zn121       O122   1.972       .  S
Zn121       O129   2.035       .  S
Zn121       O132   2.030       .  S
Zn121       O133   2.034       .  S
O123        C135   1.275       .  A
O124        C136   1.273       .  A
O125        C137   1.273       .  A
O126        C135   1.273       .  A
O127        C137   1.275       .  A
O128        C136   1.273       .  A
O129        C138   1.276   1_455  A
O130        C139   1.273       .  A
O131        C138   1.274       .  A
O132        C139   1.275   1_454  A
O133        C140   1.276       .  A
O134        C140   1.275       .  A
C135        C805   1.485   1_545  S
C136        C172   1.481       .  S
C137        C432   1.490       .  S
C138        C292   1.494       .  S
C139        C592   1.491       .  S
C140        C152   1.495       .  S
C141        C142   1.405       .  A
C141        C146   1.399       .  A
C141        F159   1.358       .  S
C142        C147   1.486       .  S
C142        C143   1.405       .  A
C143        C144   1.400       .  A
C143        F148   1.358       .  S
C144        C145   1.410       .  A
C144        F160   1.358       .  S
C145        C146   1.412       .  A
C146        F149   1.358       .  S
C147        C150   1.405       .  A
C147        C154   1.404       .  A
C150        C151   1.401       .  A
C150        F155   1.358       .  S
C151        C152   1.414       .  A
C151        F157   1.358       .  S
C152        C153   1.413       .  A
C153        C154   1.401       .  A
C153        F156   1.357       .  S
C154        F158   1.358       .  S
C161        C162   1.404       .  A
C161        C166   1.397       .  A
C161        F179   1.358       .  S
C162        C167   1.488       .  S
C162        C163   1.406   1_544  A
C163        C164   1.402       .  A
C163        F168   1.358       .  S
C164        C165   1.413   1_566  A
C164        F180   1.357       .  S
C165        C728   1.495   1_554  S
C165        C166   1.414       .  A
C166        F169   1.358       .  S
C167        C170   1.407       .  A
C167        C174   1.408       .  A
C170        C171   1.400       .  A
C170        F795   1.357       .  S
C171        C172   1.407       .  A
C171        F177   1.358       .  S
C172        C173   1.407       .  A
C173        C174   1.400       .  A
C173        F176   1.358   1_554  S
C174        F178   1.358   1_554  S
F175        C790   1.357       .  S
C181        C182   1.404   1_556  A
C181        C186   1.402   1_556  A
C181        F199   1.358       .  S
C182        C187   1.485       .  S
C182        C183   1.405       .  A
C183        C184   1.398       .  A
C183        F188   1.358       .  S
C184        C185   1.411       .  A
C184        F200   1.358       .  S
C185        C755   1.492       .  S
C185        C186   1.414       .  A
C186        F809   1.358   1_454  S
C187        C190   1.404       .  A
C187        C194   1.407   1_554  A
F189        C806   1.358   1_556  S
C190        C191   1.394   1_554  A
C190        F195   1.358       .  S
C191        C192   1.409       .  A
C191        F197   1.357   1_556  S
C192        C193   1.410       .  A
C193        C194   1.405       .  A
C193        F196   1.358       .  S
C194        F198   1.358       .  S
C201        C202   1.403       .  A
C201        C206   1.396       .  A
C201        F219   1.358       .  S
C202        C207   1.485       .  S
C202        C203   1.405   1_554  A
C203        C204   1.404       .  A
C203        F208   1.358       .  S
C204        C205   1.413       .  A
C204        F220   1.357       .  S
C205        C206   1.413   1_556  A
C206        F209   1.356       .  S
C207        C210   1.406       .  A
C207        C214   1.406   1_554  A
C210        C211   1.400       .  A
C210        F215   1.358       .  S
C211        C212   1.410       .  A
C211        F217   1.358       .  S
C212        C213   1.408       .  A
C213        C214   1.400   1_554  A
C213        F216   1.358   1_554  S
C214        F218   1.358       .  S
C221        C222   1.402       .  A
C221        C226   1.399       .  A
C221        F239   1.358       .  S
C222        C227   1.475       .  S
C222        C223   1.402       .  A
C223        C224   1.399       .  A
C223        F228   1.358   1_554  S
C224        C225   1.410       .  A
C224        F240   1.358   1_554  S
C225        C226   1.411       .  A
C226        F229   1.358       .  S
C227        C230   1.404       .  A
C227        C234   1.401       .  A
C230        C231   1.401   1_554  A
C230        F235   1.358   1_554  S
C231        C232   1.409   1_556  A
C231        F237   1.358       .  S
C232        C233   1.411       .  A
C233        C234   1.396       .  A
C233        F236   1.358       .  S
C234        F238   1.358       .  S
C241        C242   1.404       .  A
C241        C246   1.398       .  A
C241        F259   1.358       .  S
C242        C247   1.481       .  S
C242        C243   1.405       .  A
C243        C244   1.401       .  A
C243        F248   1.358       .  S
C244        C245   1.409       .  A
C244        F260   1.358       .  S
C245        C246   1.407       .  A
C246        F249   1.357       .  S
C247        C250   1.404       .  A
C247        C254   1.402       .  A
C250        C871   1.398   1_545  A
C250        F255   1.358       .  S
C251        C252   1.411       .  A
C251        C870   1.398       .  A
C251        F257   1.358       .  S
C252        C873   1.415       .  A
C253        C254   1.402       .  A
C253        C872   1.415   1_545  A
C253        F256   1.358       .  S
C254        F258   1.358       .  S
C261        C262   1.403       .  A
C261        C266   1.395       .  A
C261        F279   1.358       .  S
C262        C267   1.474       .  S
C262        C263   1.401       .  A
C263        C264   1.400       .  A
C263        F268   1.357       .  S
C264        C265   1.412       .  A
C264        F280   1.358       .  S
C265        C266   1.409       .  A
C266        F269   1.358       .  S
C267        C270   1.402       .  A
C267        C274   1.402       .  A
C270        C271   1.395       .  A
C270        F275   1.358       .  S
C271        C272   1.409       .  A
C271        F277   1.358       .  S
C272        C273   1.411       .  A
C273        C274   1.400       .  A
C273        F896   1.358       .  S
C274        F278   1.358       .  S
F276        C893   1.358   1_545  S
C281        C282   1.403       .  A
C281        C286   1.398       .  A
C281        F299   1.358       .  S
C282        C287   1.480       .  S
C282        C283   1.404       .  A
C283        C284   1.401       .  A
C283        F288   1.358       .  S
C284        C285   1.410       .  A
C284        F300   1.358       .  S
C285        C286   1.410       .  A
C286        F289   1.358       .  S
C287        C290   1.401       .  A
C287        C294   1.403       .  A
C290        C291   1.397       .  A
C290        F295   1.358       .  S
C291        C292   1.413       .  A
C291        F297   1.358       .  S
C292        C293   1.415       .  A
C293        C294   1.404       .  A
C293        F296   1.358       .  S
C294        F298   1.358       .  S
C301        C302   1.407       .  A
C301        C306   1.401       .  A
C301        F319   1.358       .  S
C302        C307   1.490       .  S
C302        C303   1.407       .  A
C303        C304   1.401       .  A
C303        F308   1.358       .  S
C304        C305   1.411       .  A
C304        F320   1.358       .  S
C305        C306   1.409       .  A
C306        F309   1.358       .  S
C307        C310   1.406       .  A
C307        C314   1.407       .  A
C310        C311   1.399       .  A
C310        F315   1.358       .  S
C311        C312   1.411       .  A
C311        F317   1.358       .  S
C312        C313   1.413       .  A
C313        C314   1.402       .  A
C313        F316   1.358       .  S
C314        F318   1.358       .  S
C321        C322   1.401       .  A
C321        C326   1.395       .  A
C321        F339   1.358       .  S
C322        C327   1.477       .  S
C322        C323   1.404   1_545  A
C323        C324   1.404   1_565  A
C323        F948   1.358       .  S
C324        C325   1.412       .  A
C324        F960   1.358   1_545  S
C325        C326   1.411       .  A
C326        F329   1.358       .  S
C327        C330   1.402       .  A
C327        C334   1.402       .  A
F328        C943   1.358       .  S
C330        C331   1.398       .  A
C330        F335   1.358       .  S
C331        C332   1.411       .  A
C331        F337   1.358   1_545  S
C332        C953   1.412       .  A
C333        C952   1.412       .  A
C333        C954   1.402       .  A
C333        F336   1.357       .  S
C334        C953   1.402       .  A
C334        F958   1.357       .  S
F338        C954   1.357       .  S
F340        C944   1.358       .  S
C341        C342   1.404       .  A
C341        C346   1.404       .  A
C341        F359   1.358       .  S
C342        C347   1.484       .  S
C342        C343   1.403       .  A
C343        C344   1.399       .  A
C343        F348   1.358       .  S
C344        C345   1.414       .  A
C344        F360   1.358       .  S
C345        C346   1.414       .  A
C346        F349   1.357   1_455  S
C347        C350   1.404       .  A
C347        C354   1.404       .  A
C350        C351   1.399       .  A
C350        F355   1.358       .  S
C351        C352   1.411       .  A
C351        F357   1.358       .  S
C352        C353   1.413       .  A
C353        C354   1.403       .  A
C353        F356   1.358       .  S
C354        F358   1.358       .  S
C361        C362   1.406       .  A
C361        C366   1.402   1_545  A
C361        F379   1.357       .  S
C362        C367   1.486       .  S
C362        C983   1.403       .  A
C363        C364   1.396       .  A
C363        C982   1.404       .  A
C363        F368   1.358       .  S
C364        C985   1.415       .  A
C364        F380   1.358       .  S
C365        C691   1.494       .  S
C365        C366   1.412       .  A
C365        C984   1.415   1_565  A
C366        F369   1.358       .  S
C367        C370   1.405       .  A
C367        C374   1.405       .  A
C370        C371   1.400       .  A
C370        F375   1.358       .  S
C371        C372   1.413       .  A
C371        F377   1.358       .  S
C372        C373   1.412       .  A
C373        C374   1.399       .  A
C373        F376   1.358   1_545  S
C374        F378   1.358   1_545  S
C381        C382   1.406       .  A
C381        C386   1.399       .  A
C381        F399   1.358       .  S
C382        C387   1.487       .  S
C382        C383   1.406       .  A
C383        C384   1.400       .  A
C383        F388   1.358       .  S
C384        C385   1.410       .  A
C384        F400   1.358       .  S
C385        C386   1.410       .  A
C386        F389   1.358       .  S
C387        C390   1.409       .  A
C387        C394   1.407       .  A
C390        C391   1.401       .  A
C390        F395   1.358       .  S
C391        C392   1.405       .  A
C391        F397   1.358       .  S
C392        C393   1.406       .  A
C393        C394   1.398       .  A
C393        F396   1.358       .  S
C394        F398   1.358       .  S
C401        C402   1.403       .  A
C401        C406   1.402       .  A
C401        F419   1.358       .  S
C402        C407   1.480       .  S
C402        C403   1.404       .  A
C403        C404   1.396       .  A
C403        F408   1.358       .  S
C404        C405   1.411       .  A
C404        F420   1.358       .  S
C405        C406   1.415       .  A
C406        F409   1.358       .  S
C407        C410   1.406       .  A
C407        C414   1.403       .  A
C410        C411   1.403       .  A
C410        F415   1.358       .  S
C411        C412   1.408       .  A
C411        F417   1.358       .  S
C412        C413   1.408       .  A
C413        C414   1.396       .  A
C413        F416   1.358       .  S
C414        F418   1.358       .  S
C421        C422   1.402       .  A
C421        C426   1.396       .  A
C421        F439   1.358       .  S
C422        C427   1.480       .  S
C422       C1043   1.405   1_545  A
C423        C424   1.401       .  A
C423       C1042   1.405       .  A
C423        F428   1.358       .  S
C424       C1045   1.412       .  A
C424        F440   1.358       .  S
C425        C650   1.487       .  S
C425        C426   1.411   1_565  A
C425       C1044   1.412       .  A
C426        F429   1.358       .  S
C427        C430   1.404       .  A
C427        C434   1.401       .  A
C430        C431   1.399       .  A
C430        F435   1.358       .  S
C431        C432   1.412       .  A
C431        F437   1.358       .  S
C432        C433   1.414       .  A
C433        C434   1.399       .  A
C433        F436   1.358   1_455  S
C434        F438   1.357       .  S
C441        C442   1.401       .  A
C441        C446   1.393       .  A
C441        F459   1.359       .  S
C442        C447   1.473       .  S
C442        C443   1.403       .  A
C443        C444   1.399       .  A
C443        F448   1.358       .  S
C444        C445   1.409       .  A
C444        F460   1.358       .  S
C445        C446   1.411       .  A
C446        F449   1.358       .  S
C447        C450   1.402       .  A
C447        C454   1.404       .  A
C450        C451   1.393       .  A
C450        F455   1.358       .  S
C451        C452   1.408       .  A
C451        F457   1.358       .  S
C452        C453   1.408       .  A
C453        C454   1.398       .  A
C453        F456   1.358   1_455  S
C454        F458   1.358       .  S
C461        C462   1.404       .  A
C461        C466   1.397       .  A
C461        F479   1.358       .  S
C462        C467   1.480       .  S
C462        C463   1.402       .  A
C463        C464   1.396       .  A
C463        F468   1.358       .  S
C464        C465   1.413       .  A
C464       F1100   1.357       .  S
C465        C466   1.413       .  A
C466        F469   1.357       .  S
C467        C470   1.408       .  A
C467        C474   1.403       .  A
C470        C471   1.398       .  A
C470        F475   1.358       .  S
C471        C472   1.405       .  A
C471        F477   1.358       .  S
C472        C473   1.410       .  A
C473        C474   1.396       .  A
C473        F476   1.358       .  S
C474        F478   1.358       .  S
F480       C1084   1.357   1_545  S
C481        C482   1.402       .  A
C481        C486   1.401       .  A
C481        F499   1.358       .  S
C482        C487   1.477       .  S
C482        C483   1.402       .  A
C483        C484   1.395       .  A
C483        F488   1.358       .  S
C484        C485   1.412       .  A
C484        F500   1.358       .  S
C485        C486   1.415       .  A
C486        F489   1.358       .  S
C487        C490   1.402       .  A
C487        C494   1.402       .  A
C490        C491   1.397       .  A
C490        F495   1.358       .  S
C491        C492   1.411       .  A
C491        F497   1.357       .  S
C492        C493   1.415       .  A
C493        C494   1.400       .  A
C493        F496   1.358       .  S
C494        F498   1.358       .  S
C501        C502   1.404       .  A
C501        C506   1.399       .  A
C501        F519   1.358       .  S
C502        C507   1.484       .  S
C502        C503   1.407       .  A
C503        C504   1.402       .  A
C503        F508   1.358       .  S
C504        C505   1.409       .  A
C504        F520   1.358       .  S
C505        C506   1.408       .  A
C506        F509   1.358       .  S
C507        C510   1.405       .  A
C507        C514   1.405       .  A
C510        C511   1.401       .  A
C510        F515   1.358       .  S
C511        C512   1.410       .  A
C511        F517   1.357       .  S
C512        C513   1.409       .  A
C513        C514   1.398       .  A
C513        F516   1.358       .  S
C514        F518   1.358       .  S
C521        C522   1.403       .  A
C521        C526   1.397       .  A
C521        F539   1.358       .  S
C522        C527   1.483       .  S
C522        C523   1.404       .  A
C523        C524   1.403       .  A
C523        F528   1.358       .  S
C524        C525   1.414       .  A
C524        F540   1.357       .  S
C525        C526   1.413       .  A
C526        F529   1.358       .  S
C527        C530   1.403       .  A
C527        C534   1.404       .  A
C530        C531   1.397       .  A
C530        F535   1.358       .  S
C531        C532   1.413       .  A
C531        F537   1.358       .  S
C532        C533   1.412       .  A
C533        C534   1.403       .  A
C533        F536   1.358       .  S
C534        F538   1.358       .  S
C541        C542   1.405       .  A
C541        C546   1.400       .  A
C541        F559   1.358       .  S
C542        C547   1.482       .  S
C542        C543   1.405       .  A
C543       C1164   1.401       .  A
C543        F548   1.358       .  S
C544        C545   1.407       .  A
C544       C1163   1.401       .  A
C544        F560   1.358       .  S
C545       C1166   1.409       .  A
C546       C1165   1.409   1_545  A
C546       F1169   1.358       .  S
C547        C550   1.401       .  A
C547        C554   1.404       .  A
F549       C1166   1.358       .  S
C550        C551   1.396       .  A
C550        F555   1.358       .  S
C551        C552   1.416       .  A
C551        F557   1.358       .  S
C552        C553   1.414       .  A
C553        C554   1.404       .  A
C553        F556   1.358       .  S
C554        F558   1.358       .  S
C561        C562   1.399       .  A
C561        C566   1.398       .  A
C561        F579   1.358       .  S
C562        C567   1.473       .  S
C562        C563   1.400       .  A
C563        C564   1.398       .  A
C563        F568   1.358       .  S
C564        C565   1.414       .  A
C564        F580   1.357       .  S
C565        C566   1.415       .  A
C566        F569   1.357       .  S
C567        C570   1.403       .  A
C567        C574   1.402       .  A
C570        C571   1.396       .  A
C570        F575   1.358       .  S
C571        C572   1.408       .  A
C571        F577   1.358       .  S
C572        C573   1.410       .  A
C573        C574   1.400       .  A
C573        F576   1.358       .  S
C574        F578   1.358       .  S
C581        C582   1.404       .  A
C581        C586   1.396       .  A
C581        F599   1.359       .  S
C582        C587   1.484       .  S
C582        C583   1.405       .  A
C583        C584   1.402       .  A
C583        F588   1.358       .  S
C584        C585   1.413       .  A
C584        F600   1.357       .  S
C585        C586   1.413       .  A
C586        F589   1.357       .  S
C587        C590   1.404       .  A
C587        C594   1.405       .  A
C590        C591   1.396       .  A
C590        F595   1.358       .  S
C591        C592   1.413       .  A
C591        F597   1.358       .  S
C592        C593   1.413       .  A
C593        C594   1.401       .  A
C593        F596   1.358   1_655  S
C594        F598   1.358       .  S
C601        C602   1.404       .  A
C601        C606   1.399       .  A
C601        F619   1.358       .  S
C602        C607   1.485       .  S
C602        C603   1.406       .  A
C603        C604   1.400       .  A
C603        F608   1.358       .  S
C604        C605   1.411       .  A
C604        F620   1.358       .  S
C605        C606   1.412       .  A
C606        F609   1.358       .  S
C607        C610   1.404       .  A
C607        C614   1.407       .  A
C610        C611   1.395       .  A
C610        F615   1.358       .  S
C611        C612   1.412       .  A
C611       F1237   1.358       .  S
C612        C679   1.490       .  S
C612        C613   1.412       .  A
C613        C614   1.404       .  A
C613        F616   1.358       .  S
C614        F618   1.358       .  S
F617       C1231   1.358   1_545  S
C621        N622   1.360       .  A
C621        N626   1.362       .  A
C621       C1205   1.496       .  S
N622        C623   1.358       .  A
C623        N624   1.357       .  A
C623       C1185   1.492       .  S
N624        C625   1.358       .  A
C625        N626   1.361       .  A
C625       C1225   1.488       .  S
Zn627       O631   1.954       .  S
Zn627       O632   2.013       .  S
Zn627       O636   2.011       .  S
Zn627       O643   1.989       .  S
Zn628       O631   1.955       .  S
Zn628       O633   2.016       .  S
Zn628       O635   2.014       .  S
Zn628       O639   2.020       .  S
Zn629       O631   1.968       .  S
Zn629       O634   2.032       .  S
Zn629       O637   2.019       .  S
Zn629       O640   2.028       .  S
Zn630       O631   1.968       .  S
Zn630       O638   2.023       .  S
Zn630       O641   2.031       .  S
Zn630       O642   2.037       .  S
O632        C644   1.271       .  A
O633        C645   1.275       .  A
O634        C646   1.275       .  A
O635        C644   1.273       .  A
O636        C646   1.273       .  A
O637        C645   1.274       .  A
O638        C647   1.275       .  A
O639        C648   1.274       .  A
O640        C647   1.275       .  A
O641        C648   1.275       .  A
O642        C649   1.276       .  A
O643        C649   1.271       .  A
C644       C1105   1.490       .  S
C645       C1192   1.482       .  S
C646       C1145   1.493       .  S
C647       C1125   1.484       .  S
C648       C1165   1.483       .  S
C649       C1092   1.477       .  S
C650        N651   1.360       .  A
C650        N655   1.357       .  A
N651        C652   1.360       .  A
C652        N653   1.358       .  A
C652       C1065   1.482       .  S
N653        C654   1.356       .  A
C654        N655   1.355       .  A
C654       C1085   1.490       .  S
C656        N657   1.358       .  A
C656        N661   1.362       .  A
C656       C1032   1.480       .  S
N657        C658   1.355       .  A
C658        N659   1.355       .  A
C658       C1012   1.479       .  S
N659        C660   1.360       .  A
C660        N661   1.364       .  A
C660       C1172   1.496       .  S
Zn662       O666   1.976   1_455  S
Zn662       O667   2.042   1_455  S
Zn662       O671   2.041       .  S
Zn662       O678   2.027   1_455  S
Zn663       O666   1.953       .  S
Zn663       O668   2.034       .  S
Zn663       O670   2.003       .  S
Zn663       O674   2.020       .  S
Zn664       O666   1.944   1_455  S
Zn664       O669   2.002       .  S
Zn664       O672   2.012       .  S
Zn664       O675   1.989       .  S
Zn665       O666   1.967       .  S
Zn665       O673   2.023       .  S
Zn665       O676   2.031       .  S
Zn665       O677   2.016       .  S
O667        C679   1.277       .  A
O668        C680   1.274   1_655  A
O669        C681   1.272       .  A
O670        C679   1.274       .  A
O671        C681   1.275       .  A
O672        C680   1.273       .  A
O673        C682   1.273   1_655  A
O674        C683   1.274       .  A
O675        C682   1.270       .  A
O676        C683   1.275       .  A
O677        C684   1.274       .  A
O678        C684   1.276       .  A
C680        C965   1.494       .  S
C681        C945   1.486       .  S
C682       C1072   1.476       .  S
C683       C1005   1.488       .  S
C684        C992   1.492       .  S
C685        N690   1.359       .  A
C685        C932   1.496       .  S
N686        C687   1.362       .  A
C687        N688   1.359       .  A
C687       C1152   1.493       .  S
N688        C689   1.358       .  A
C689        C952   1.488       .  S
C691        N692   1.357       .  A
C691        N696   1.362       .  A
N692        C693   1.355       .  A
C693        N694   1.357       .  A
C693        C892   1.479       .  S
N694        C695   1.358       .  A
C695        N696   1.362       .  A
C695        C905   1.486       .  S
Zn697       O701   1.958       .  S
Zn697       O702   2.013       .  S
Zn697       O706   2.007       .  S
Zn697       O713   2.016       .  S
Zn698       O701   1.963       .  S
Zn698       O703   2.030       .  S
Zn698       O705   2.036   1_554  S
Zn698       O709   2.029       .  S
Zn699       O701   1.952       .  S
Zn699       O704   2.005       .  S
Zn699       O707   2.013       .  S
Zn699       O710   2.016       .  S
Zn700       O701   1.956       .  S
Zn700       O708   2.018       .  S
Zn700       O711   2.007       .  S
Zn700       O712   2.027       .  S
O702        C714   1.273   1_554  A
O703        C715   1.275       .  A
O704        C716   1.273       .  A
O705        C714   1.276       .  A
O706        C716   1.272       .  A
O707        C715   1.273       .  A
O708        C717   1.272       .  A
O709        C718   1.276       .  A
O710        C717   1.274       .  A
O711        C718   1.274       .  A
O712        C719   1.275       .  A
O713        C719   1.273       .  A
C714        C925   1.490       .  S
C715        C845   1.484       .  S
C716        C885   1.480       .  S
C717       C1025   1.490       .  S
C718        C832   1.482       .  S
C719        C872   1.492       .  S
C720        N721   1.362       .  A
C720        N725   1.362       .  A
C720        C972   1.488       .  S
N721        C722   1.359       .  A
C722        N723   1.356       .  A
C722        C825   1.491       .  S
N723        C724   1.356       .  A
C724        N725   1.359       .  A
C724        C812   1.480       .  S
C726        N727   1.363       .  A
C726       C1112   1.490       .  S
N727        C728   1.360   1_565  A
N729        C730   1.356   1_554  A
C730        N731   1.357       .  A
C730        C852   1.483       .  S
C732        N733   1.360       .  A
C732        N737   1.361       .  A
C732       C1132   1.487       .  S
N733        C734   1.358       .  A
C734        N735   1.357       .  A
C734        C765   1.486       .  S
N735        C736   1.358       .  A
C736        N737   1.361       .  A
C736        C865   1.479       .  S
Zn738       O742   1.959       .  S
Zn738       O743   2.023       .  S
Zn738       O747   2.020       .  S
Zn738       O754   2.028       .  S
Zn739       O742   1.963   1_655  S
Zn739       O744   2.022       .  S
Zn739       O746   2.023   1_655  S
Zn739       O750   2.014   1_554  S
Zn740       O742   1.956   1_655  S
Zn740       O745   2.012   1_655  S
Zn740       O748   2.014       .  S
Zn740       O751   2.020       .  S
Zn741       O742   1.968       .  S
Zn741       O749   2.035       .  S
Zn741       O752   2.025       .  S
Zn741       O753   2.030       .  S
O743        C755   1.275       .  A
O744        C756   1.273       .  A
O745        C757   1.273       .  A
O746        C755   1.274       .  A
O747        C757   1.274       .  A
O748        C756   1.273       .  A
O749        C758   1.275   1_455  A
O750        C759   1.274       .  A
O751        C758   1.275       .  A
O752        C759   1.275   1_454  A
O753        C760   1.276       .  A
O754        C760   1.275       .  A
C756        C792   1.480       .  S
C757       C1052   1.487       .  S
C758        C912   1.495       .  S
C759       C1212   1.489       .  S
C760        C772   1.493       .  S
C761        C762   1.404       .  A
C761        C766   1.399       .  A
C761        F779   1.358       .  S
C762        C767   1.483       .  S
C762        C763   1.405       .  A
C763        C764   1.401       .  A
C763        F768   1.358       .  S
C764        C765   1.409       .  A
C764        F780   1.358       .  S
C765        C766   1.412       .  A
C766        F769   1.358       .  S
C767        C770   1.405       .  A
C767        C774   1.402       .  A
C770        C771   1.401       .  A
C770        F775   1.358       .  S
C771        C772   1.413       .  A
C771        F777   1.358       .  S
C772        C773   1.413       .  A
C773        C774   1.400       .  A
C773        F776   1.357       .  S
C774        F778   1.358       .  S
C781        C782   1.404       .  A
C781        C786   1.396       .  A
C781        F799   1.358       .  S
C782        C787   1.486       .  S
C782        C783   1.405   1_554  A
C783        C784   1.402       .  A
C783        F788   1.358       .  S
C784        C785   1.414   1_556  A
C784        F800   1.357       .  S
C785        C786   1.414       .  A
C786        F789   1.357       .  S
C787        C790   1.406       .  A
C787        C794   1.408       .  A
C790        C791   1.399       .  A
C791        C792   1.408       .  A
C791        F797   1.358       .  S
C792        C793   1.407       .  A
C793        C794   1.400       .  A
C793        F796   1.358   1_554  S
C794        F798   1.358   1_554  S
C801        C802   1.402   1_556  A
C801        C806   1.399   1_556  A
C801        F819   1.358       .  S
C802        C807   1.475       .  S
C802        C803   1.403       .  A
C803        C804   1.400       .  A
C803        F808   1.358       .  S
C804        C805   1.410       .  A
C804        F820   1.358       .  S
C805        C806   1.411       .  A
C807        C810   1.400       .  A
C807        C814   1.405   1_554  A
C810        C811   1.394   1_554  A
C810        F815   1.358       .  S
C811        C812   1.409       .  A
C811        F817   1.357       .  S
C812        C813   1.409       .  A
C813        C814   1.405       .  A
C813        F816   1.358       .  S
C814        F818   1.357       .  S
C821        C822   1.403       .  A
C821        C826   1.395       .  A
C821        F839   1.359       .  S
C822        C827   1.481       .  S
C822        C823   1.404   1_554  A
C823        C824   1.402       .  A
C823        F828   1.358       .  S
C824        C825   1.412       .  A
C824        F840   1.357       .  S
C825        C826   1.413   1_556  A
C826        F829   1.357       .  S
C827        C830   1.405       .  A
C827        C834   1.406   1_554  A
C830        C831   1.398       .  A
C830        F835   1.358       .  S
C831        C832   1.410       .  A
C831        F837   1.358       .  S
C832        C833   1.408       .  A
C833        C834   1.399   1_554  A
C833        F836   1.358   1_554  S
C834        F838   1.358       .  S
C841        C842   1.402       .  A
C841        C846   1.399       .  A
C841        F859   1.358       .  S
C842        C847   1.476       .  S
C842        C843   1.403   1_554  A
C843        C844   1.400   1_556  A
C843        F848   1.358       .  S
C844        C845   1.410       .  A
C844        F860   1.358   1_554  S
C845        C846   1.411       .  A
C846        F849   1.358       .  S
C847        C850   1.403       .  A
C847        C854   1.401       .  A
C850        C851   1.401   1_554  A
C850        F855   1.358   1_554  S
C851        C852   1.410       .  A
C851        F857   1.358       .  S
C852        C853   1.411   1_556  A
C853        C854   1.397       .  A
C853        F856   1.358       .  S
C854        F858   1.358       .  S
C861        C862   1.404       .  A
C861        C866   1.397       .  A
C861        F879   1.358       .  S
C862        C867   1.481       .  S
C862        C863   1.405       .  A
C863        C864   1.400       .  A
C863        F868   1.358       .  S
C864        C865   1.408       .  A
C864        F880   1.358       .  S
C865        C866   1.408       .  A
C866        F869   1.357       .  S
C867        C870   1.405       .  A
C867        C874   1.402       .  A
C870        F875   1.358       .  S
C871        C872   1.412       .  A
C871        F877   1.358       .  S
C873        C874   1.401       .  A
C873        F876   1.358       .  S
C874        F878   1.358       .  S
C881        C882   1.403       .  A
C881        C886   1.395       .  A
C881        F899   1.358       .  S
C882        C887   1.473       .  S
C882        C883   1.401       .  A
C883        C884   1.399       .  A
C883        F888   1.358       .  S
C884        C885   1.412       .  A
C884        F900   1.358       .  S
C885        C886   1.409       .  A
C886        F889   1.358       .  S
C887        C890   1.402       .  A
C887        C894   1.402       .  A
C890        C891   1.395       .  A
C890        F895   1.358       .  S
C891        C892   1.409       .  A
C891        F897   1.358       .  S
C892        C893   1.410       .  A
C893        C894   1.399       .  A
C894        F898   1.358   1_565  S
C901        C902   1.404       .  A
C901        C906   1.399       .  A
C901        F919   1.358       .  S
C902        C907   1.482       .  S
C902        C903   1.404       .  A
C903        C904   1.401       .  A
C903        F908   1.358       .  S
C904        C905   1.411       .  A
C904        F920   1.358       .  S
C905        C906   1.410       .  A
C906        F909   1.358       .  S
C907        C910   1.402       .  A
C907        C914   1.403       .  A
C910        C911   1.398       .  A
C910        F915   1.358       .  S
C911        C912   1.413       .  A
C911        F917   1.358       .  S
C912        C913   1.415       .  A
C913        C914   1.404       .  A
C913        F916   1.358       .  S
C914        F918   1.358       .  S
C921        C922   1.406       .  A
C921        C926   1.400       .  A
C921        F939   1.358       .  S
C922        C927   1.488       .  S
C922        C923   1.406       .  A
C923        C924   1.401       .  A
C923        F928   1.358       .  S
C924        C925   1.412       .  A
C924        F940   1.358       .  S
C925        C926   1.410       .  A
C926        F929   1.358       .  S
C927        C930   1.404       .  A
C927        C934   1.406       .  A
C930        C931   1.398       .  A
C930        F935   1.358       .  S
C931        C932   1.413       .  A
C931        F937   1.358       .  S
C932        C933   1.414       .  A
C933        C934   1.403       .  A
C933        F936   1.357   1_565  S
C934        F938   1.358       .  S
C941        C942   1.401       .  A
C941        C946   1.396       .  A
C941        F959   1.358       .  S
C942        C947   1.478       .  S
C942        C943   1.405       .  A
C943        C944   1.404       .  A
C944        C945   1.411       .  A
C945        C946   1.411       .  A
C946        F949   1.358       .  S
C947        C950   1.402       .  A
C947        C954   1.403       .  A
C950        C951   1.398       .  A
C950        F955   1.358       .  S
C951        C952   1.411       .  A
C951        F957   1.358       .  S
C953        F956   1.357       .  S
C961        C962   1.404       .  A
C961        C966   1.403       .  A
C961        F979   1.358       .  S
C962        C967   1.484       .  S
C962        C963   1.404       .  A
C963        C964   1.398       .  A
C963        F968   1.358       .  S
C964        C965   1.413       .  A
C964        F980   1.358       .  S
C965        C966   1.414       .  A
C966        F969   1.357   1_455  S
C967        C970   1.405       .  A
C967        C974   1.405       .  A
C970        C971   1.399       .  A
C970        F975   1.358       .  S
C971        C972   1.410       .  A
C971        F977   1.358       .  S
C972        C973   1.412       .  A
C973        C974   1.402       .  A
C973        F976   1.358       .  S
C974        F978   1.358       .  S
C981        C982   1.405       .  A
C981        C986   1.401       .  A
C981        F999   1.357       .  S
C982        C987   1.486       .  S
C983        C984   1.396       .  A
C983        F988   1.358       .  S
C984       F1000   1.358       .  S
C985        C986   1.413       .  A
C986        F989   1.358       .  S
C987        C990   1.405       .  A
C987        C994   1.405       .  A
C990        C991   1.399       .  A
C990        F995   1.358       .  S
C991        C992   1.413       .  A
C991        F997   1.358       .  S
C992        C993   1.412       .  A
C993        C994   1.399       .  A
C993        F996   1.358       .  S
C994        F998   1.358       .  S
C1001      C1002   1.406       .  A
C1001      C1006   1.400       .  A
C1001      F1019   1.358       .  S
C1002      C1007   1.488       .  S
C1002      C1003   1.407       .  A
C1003      C1004   1.401       .  A
C1003      F1008   1.358       .  S
C1004      C1005   1.410       .  A
C1004      F1020   1.358       .  S
C1005      C1006   1.410       .  A
C1006      F1009   1.358       .  S
C1007      C1010   1.408       .  A
C1007      C1014   1.407       .  A
C1010      C1011   1.401       .  A
C1010      F1015   1.358       .  S
C1011      C1012   1.406       .  A
C1011      F1017   1.358       .  S
C1012      C1013   1.407       .  A
C1013      C1014   1.399       .  A
C1013      F1016   1.358       .  S
C1014      F1018   1.358       .  S
C1021      C1022   1.403       .  A
C1021      C1026   1.402       .  A
C1021      F1039   1.358       .  S
C1022      C1027   1.480       .  S
C1022      C1023   1.403       .  A
C1023      C1024   1.396       .  A
C1023      F1028   1.358       .  S
C1024      C1025   1.411       .  A
C1024      F1040   1.358       .  S
C1025      C1026   1.415       .  A
C1026      F1029   1.358       .  S
C1027      C1030   1.406       .  A
C1027      C1034   1.403       .  A
C1030      C1031   1.403       .  A
C1030      F1035   1.358       .  S
C1031      C1032   1.408       .  A
C1031      F1037   1.358       .  S
C1032      C1033   1.407       .  A
C1033      C1034   1.396       .  A
C1033      F1036   1.358       .  S
C1034      F1038   1.358       .  S
C1041      C1042   1.403       .  A
C1041      C1046   1.395       .  A
C1041      F1059   1.358       .  S
C1042      C1047   1.481       .  S
C1043      C1044   1.401       .  A
C1043      F1048   1.358       .  S
C1044      F1060   1.358       .  S
C1045      C1046   1.410       .  A
C1046      F1049   1.358       .  S
C1047      C1050   1.405       .  A
C1047      C1054   1.403       .  A
C1050      C1051   1.397       .  A
C1050      F1055   1.358       .  S
C1051      C1052   1.410       .  A
C1051      F1057   1.358       .  S
C1052      C1053   1.413       .  A
C1053      C1054   1.399       .  A
C1053      F1056   1.358   1_455  S
C1054      F1058   1.356       .  S
C1061      C1062   1.401       .  A
C1061      C1066   1.393       .  A
C1061      F1079   1.358       .  S
C1062      C1067   1.474       .  S
C1062      C1063   1.403       .  A
C1063      C1064   1.401       .  A
C1063      F1068   1.358       .  S
C1064      C1065   1.410       .  A
C1064      F1080   1.358       .  S
C1065      C1066   1.411       .  A
C1066      F1069   1.358       .  S
C1067      C1070   1.402       .  A
C1067      C1074   1.405       .  A
C1070      C1071   1.394       .  A
C1070      F1075   1.358       .  S
C1071      C1072   1.409       .  A
C1071      F1077   1.358       .  S
C1072      C1073   1.408       .  A
C1073      C1074   1.400       .  A
C1073      F1076   1.358       .  S
C1074      F1078   1.358       .  S
C1081      C1082   1.405       .  A
C1081      C1086   1.398       .  A
C1081      F1099   1.358       .  S
C1082      C1087   1.480       .  S
C1082      C1083   1.401       .  A
C1083      C1084   1.396       .  A
C1083      F1088   1.358       .  S
C1084      C1085   1.413       .  A
C1085      C1086   1.413       .  A
C1086      F1089   1.357       .  S
C1087      C1090   1.408       .  A
C1087      C1094   1.403       .  A
C1090      C1091   1.399       .  A
C1090      F1095   1.358       .  S
C1091      C1092   1.405       .  A
C1091      F1097   1.358       .  S
C1092      C1093   1.409       .  A
C1093      C1094   1.396       .  A
C1093      F1096   1.358       .  S
C1094      F1098   1.358       .  S
C1101      C1102   1.402       .  A
C1101      C1106   1.402       .  A
C1101      F1119   1.358       .  S
C1102      C1107   1.477       .  S
C1102      C1103   1.402       .  A
C1103      C1104   1.395       .  A
C1103      F1108   1.358       .  S
C1104      C1105   1.412       .  A
C1104      F1120   1.358       .  S
C1105      C1106   1.415       .  A
C1106      F1109   1.358       .  S
C1107      C1110   1.402       .  A
C1107      C1114   1.401       .  A
C1110      C1111   1.397       .  A
C1110      F1115   1.358       .  S
C1111      C1112   1.410       .  A
C1111      F1117   1.357       .  S
C1112      C1113   1.415       .  A
C1113      C1114   1.401       .  A
C1113      F1116   1.358   1_565  S
C1114      F1118   1.358       .  S
C1121      C1122   1.404       .  A
C1121      C1126   1.399       .  A
C1121      F1139   1.358       .  S
C1122      C1127   1.484       .  S
C1122      C1123   1.407       .  A
C1123      C1124   1.402       .  A
C1123      F1128   1.358       .  S
C1124      C1125   1.409       .  A
C1124      F1140   1.358       .  S
C1125      C1126   1.409       .  A
C1126      F1129   1.358       .  S
C1127      C1130   1.404       .  A
C1127      C1134   1.405       .  A
C1130      C1131   1.401       .  A
C1130      F1135   1.358       .  S
C1131      C1132   1.411       .  A
C1131      F1137   1.357       .  S
C1132      C1133   1.409       .  A
C1133      C1134   1.399       .  A
C1133      F1136   1.358       .  S
C1134      F1138   1.358       .  S
C1141      C1142   1.403       .  A
C1141      C1146   1.397       .  A
C1141      F1159   1.358       .  S
C1142      C1147   1.483       .  S
C1142      C1143   1.404       .  A
C1143      C1144   1.403       .  A
C1143      F1148   1.358       .  S
C1144      C1145   1.414       .  A
C1144      F1160   1.358       .  S
C1145      C1146   1.413       .  A
C1146      F1149   1.358       .  S
C1147      C1150   1.403       .  A
C1147      C1154   1.403       .  A
C1150      C1151   1.398       .  A
C1150      F1155   1.358       .  S
C1151      C1152   1.414       .  A
C1151      F1157   1.358       .  S
C1152      C1153   1.414       .  A
C1153      C1154   1.402       .  A
C1153      F1156   1.358       .  S
C1154      F1158   1.358       .  S
C1161      C1162   1.405       .  A
C1161      C1166   1.401       .  A
C1161      F1179   1.358       .  S
C1162      C1167   1.484       .  S
C1162      C1163   1.406       .  A
C1163      F1168   1.358       .  S
C1164      C1165   1.408   1_545  A
C1164      F1180   1.358   1_545  S
C1167      C1170   1.402       .  A
C1167      C1174   1.405       .  A
C1170      C1171   1.396       .  A
C1170      F1175   1.358       .  S
C1171      C1172   1.415       .  A
C1171      F1177   1.358       .  S
C1172      C1173   1.414       .  A
C1173      C1174   1.403       .  A
C1173      F1176   1.358       .  S
C1174      F1178   1.358       .  S
C1181      C1182   1.400       .  A
C1181      C1186   1.400       .  A
C1181      F1199   1.358       .  S
C1182      C1187   1.474       .  S
C1182      C1183   1.400       .  A
C1183      C1184   1.398       .  A
C1183      F1188   1.358       .  S
C1184      C1185   1.414       .  A
C1184      F1200   1.358       .  S
C1185      C1186   1.414       .  A
C1186      F1189   1.356       .  S
C1187      C1190   1.402       .  A
C1187      C1194   1.402       .  A
C1190      C1191   1.397       .  A
C1190      F1195   1.358       .  S
C1191      C1192   1.410       .  A
C1191      F1197   1.358       .  S
C1192      C1193   1.411       .  A
C1193      C1194   1.400       .  A
C1193      F1196   1.358       .  S
C1194      F1198   1.358       .  S
C1201      C1202   1.404       .  A
C1201      C1206   1.398       .  A
C1201      F1219   1.358       .  S
C1202      C1207   1.486       .  S
C1202      C1203   1.405       .  A
C1203      C1204   1.401       .  A
C1203      F1208   1.358       .  S
C1204      C1205   1.414       .  A
C1204      F1220   1.357       .  S
C1205      C1206   1.414       .  A
C1206      F1209   1.357       .  S
C1207      C1210   1.405       .  A
C1207      C1214   1.406       .  A
C1210      C1211   1.398       .  A
C1210      F1215   1.358       .  S
C1211      C1212   1.411       .  A
C1211      F1217   1.358       .  S
C1212      C1213   1.412       .  A
C1213      C1214   1.400       .  A
C1213      F1216   1.358       .  S
C1214      F1218   1.358       .  S
C1221      C1222   1.405       .  A
C1221      C1226   1.400       .  A
C1221      F1239   1.358       .  S
C1222      C1227   1.487       .  S
C1222      C1223   1.407       .  A
C1223      C1224   1.400       .  A
C1223      F1228   1.358       .  S
C1224      C1225   1.410       .  A
C1224      F1240   1.357       .  S
C1225      C1226   1.411       .  A
C1226      F1229   1.358       .  S
C1227      C1230   1.404       .  A
C1227      C1234   1.407       .  A
C1230      C1231   1.395       .  A
C1230      F1235   1.358       .  S
C1231      C1232   1.411       .  A
C1232      C1233   1.411       .  A
C1233      C1234   1.404       .  A
C1233      F1236   1.358       .  S
C1234      F1238   1.358       .  S
